18

C          0.8355171770    1.1151669340    0.0214013130
H          1.4843239780    1.9806085800    0.0195342970
C          1.3832749650   -0.1661472130    0.0237653060
H          2.4571490160   -0.2952046810    0.0227710760
C          0.5475546550   -1.2813163200    0.0216856250
H          0.9729361010   -2.2758045310    0.0197785280
C         -0.8355231280   -1.1151615900    0.0213990740
H         -1.4843341870   -1.9806063950    0.0195300930
C         -1.3832835840    0.1661541340    0.0237577460
H         -2.4571561770    0.2952090580    0.0227570660
C         -0.5475657660    1.2813234710    0.0216802490
H         -0.9729428410    2.2758054780    0.0197687260
GHOST-C    0.6557805990   -0.1167904790    3.5307517410
GHOST-H    1.0472413750   -1.1239093070    3.5262834750
GHOST-H    1.3708543830    0.6932734950    3.5262501530
GHOST-C   -0.6557759200    0.1167921520    3.5307606320
GHOST-H   -1.3708478670   -0.6932723660    3.5262645440
GHOST-H   -1.0472390290    1.1239110500    3.5263024340
