21

C         -1.2327270030    1.2116389640   -0.1416240610
O         -0.5712766730    2.2420157330    0.0256167870
N         -0.6705805100    0.0038887800   -0.3142814730
H          0.3438469450   -0.0905601050   -0.3083266670
H         -1.2442137340   -0.8063236990   -0.4466827100
C         -2.7382449550    1.2667576640   -0.1558865720
H         -3.0779753390    1.6466051060    0.8045015920
H         -3.2021150340    0.3028654890   -0.3462111160
H         -3.0499874730    1.9754904930   -0.9185973670
GHOST-N    4.1952128920    1.1174286430   -0.1195419260
GHOST-H    4.6852423390    0.2414714630   -0.2374803950
GHOST-C    4.9988389040    2.2602735820    0.0309397700
GHOST-O    6.2144009310    2.1646512580    0.0157549940
GHOST-C    4.2262467290    3.4755900650    0.1940837080
GHOST-H    4.7480097190    4.4087829280    0.3171188310
GHOST-C    2.8770860170    3.4139145360    0.1884069510
GHOST-H    2.2566819660    4.2902749220    0.3060838480
GHOST-N    2.1920039100    2.2416330280    0.0338411850
GHOST-H    1.1592134320    2.2325719640    0.0330038670
GHOST-C    2.8228938750    1.0371635300   -0.1284188510
GHOST-O    2.2257051450   -0.0267524310   -0.2702263420
