34

C          0.3825222060   -0.0706069720    0.7668958170
C         -1.0406394720    0.3968112550    1.0609359330
H         -1.7715745960   -0.2815002480    0.6183302330
H         -1.2247177700    0.4357350850    2.1355188990
H         -1.2140660310    1.3937244370    0.6530906470
C          0.5908474720   -1.4668181370    1.3479779090
H          1.6029137970   -1.8229499970    1.1501028540
H          0.4389685820   -1.4667459830    2.4282866850
H         -0.1099190560   -2.1786842500    0.9093139010
C          1.3782690480    0.8984353620    1.3991494400
H          2.4043939720    0.5854407400    1.2007336520
H          1.2437809240    0.9459742980    2.4807099140
H          1.2483731800    1.9050226190    0.9989507070
C          0.6019609410   -0.1110341940   -0.7430965900
H          0.4592118240    0.8770390980   -1.1828981920
H          1.6136939870   -0.4434594510   -0.9796720980
H         -0.0995307830   -0.7975498230   -1.2192206900
GHOST-C   -0.3750284230    0.0693136330    5.9664883320
GHOST-C    1.0477840300   -0.3996523670    5.6730887910
GHOST-H    1.2322232320   -0.4389815180    4.5985683250
GHOST-H    1.7792181790    0.2780204610    6.1158243660
GHOST-H    1.2200476970   -1.3966584090    6.0812093630
GHOST-C   -0.5814252330    1.4658751590    5.3856578570
GHOST-H   -1.5933883280    1.8228606060    5.5825053830
GHOST-H    0.1194933650    2.1769466320    5.8253796250
GHOST-H   -0.4283160170    1.4660717740    4.3055155020
GHOST-C   -0.5953229140    0.1094898470    7.4763419600
GHOST-H   -1.6065390690    0.4437668330    7.7124151480
GHOST-H    0.1071895410    0.7944388790    7.9531801800
GHOST-H   -0.4547598210   -0.8790304920    7.9157936980
GHOST-C   -1.3714911410   -0.8984640270    5.3333419360
GHOST-H   -1.2425651320   -1.9054394080    5.7329209080
GHOST-H   -2.3973802380   -0.5846911710    5.5317297890
GHOST-H   -1.2367867750   -0.9454384210    4.2517652740
