23

C          0.8187469880    0.8641723400    0.1882861160
H          1.4661136110    1.7166676670    0.3447214070
C          1.3689971190   -0.3905239410   -0.0666981820
H          2.4430363670   -0.5118619400   -0.1105744390
C          0.5343786020   -1.4884931960   -0.2718880370
H          0.9608482520   -2.4615642170   -0.4755074910
C         -0.8491156130   -1.3305073450   -0.2198964340
H         -1.4970694240   -2.1818602850   -0.3795532110
C         -1.3994854560   -0.0760302020    0.0404341650
H         -2.4726866690    0.0449077780    0.0933820570
C         -0.5652923030    1.0214033600    0.2422792080
H         -0.9925566730    1.9936613080    0.4462581680
GHOST-N   -2.3984319870    0.1621408760    3.5204113660
GHOST-C   -1.7835460560    1.3198086860    3.8004755560
GHOST-H   -2.4311501130    2.1729801390    3.9629876490
GHOST-C   -0.4013311580    1.4606564220    3.8906463720
GHOST-H    0.0305176000    2.4243065370    4.1218626690
GHOST-C    0.3996202330    0.3436771180    3.6764324610
GHOST-H    1.4771894010    0.4140613960    3.7312669710
GHOST-C   -0.2209316700   -0.8649779200    3.3827728840
GHOST-H    0.3548428400   -1.7605998030    3.1986979470
GHOST-C   -1.6114459470   -0.9030158030    3.3173234660
GHOST-H   -2.1202988720   -1.8314691810    3.0884807920
