758
opt
C	0.8475976647	0.8475976826	0.8475976766
C	1.7362082992	1.7362083152	-0.0358420717
C	-0.0358420726	1.7362083267	1.7362083130
C	1.7362083048	-0.0358420645	1.7362083079
C	2.6319662558	2.6319662623	0.8362064084
C	0.8362064149	2.6319662618	2.6319662685
C	2.6319662629	0.8362064124	2.6319662508
C	3.5279792694	3.5279792630	-0.0270229349
C	1.7509254053	3.5144399446	1.7509254086
C	3.5144399421	1.7509254143	1.7509254028
C	-0.0270229300	3.5279792600	3.5279792737
C	1.7509254139	1.7509254055	3.5144399445
C	3.5279792649	-0.0270229289	3.5279792515
C	4.4220178339	4.4220178350	0.8414120828
C	2.6333601296	4.4219765941	2.6333601246
C	4.4219766078	2.6333601230	2.6333601223
C	0.8414120918	4.4220178328	4.4220178504
C	2.6333601346	2.6333601281	4.4219765942
C	4.4220178326	0.8414120857	4.4220178290
C	5.3165244801	5.3165244783	-0.0240974779
C	3.5415642599	5.3031181123	1.7554981608
C	5.3031181163	3.5415642650	1.7554981575
C	1.7554981644	5.3031181018	3.5415642629
C	3.5290121141	3.5290121046	3.5290121010
C	5.3031181203	1.7554981576	3.5415642582
C	-0.0240974703	5.3165244810	5.3165244910
C	1.7554981778	3.5415642614	5.3031181141
C	3.5415642705	1.7554981667	5.3031181101
C	5.3165244819	-0.0240974661	5.3165244807
C	6.2102549208	6.2102549340	0.8434297097
C	4.4225512235	6.2104084295	2.6363911834
C	6.2104084292	4.4225512323	2.6363911828
C	2.6363911910	6.2104084274	4.4225512161
C	4.4234436514	4.4234436518	4.4234436436
C	6.2104084267	2.6363911822	4.4225512270
C	0.8434297218	6.2102549288	6.2102549327
C	2.6363911877	4.4225512353	6.2104084318
C	4.4225512270	2.6363911898	6.2104084298
C	6.2102549182	0.8434297208	6.2102549260
C	7.1041237581	7.1041237299	-0.0227111620
C	5.3298214755	7.0909989613	1.7576972872
C	7.0909989566	5.3298214780	1.7576972736
C	3.5446657853	7.0898284044	3.5446657791
C	5.3169181228	5.3169181292	3.5324497289
C	7.0898283946	3.5446657830	3.5446657794
C	1.7576972869	7.0909989508	5.3298214718
C	3.5324497343	5.3169181220	5.3169181190
C	5.3169181217	3.5324497314	5.3169181193
C	7.0909989638	1.7576972824	5.3298214716
C	-0.0227111554	7.1041237469	7.1041237460
C	1.7576972898	5.3298214806	7.0909989650
C	3.5446657822	3.5446657880	7.0898283995
C	5.3298214760	1.7576972910	7.0909989642
C	7.1041237371	-0.0227111556	7.1041237355
C	7.9976372585	7.9976372485	0.8443999238
C	6.2103055161	7.9978810334	2.6379863347
C	7.9978810181	6.2103055144	2.6379863390
C	4.4246127174	7.9973061447	4.4246127025
C	6.2108266736	6.2108266708	4.4260307758
C	7.9973061417	4.4246127008	4.4246127073
C	2.6379863469	7.9978810282	6.2103054976
C	4.4260307911	6.2108266673	6.2108266562
C	6.2108266678	4.4260307751	6.2108266676
C	7.9978810209	2.6379863425	6.2103055089
C	0.8443999342	7.9976372609	7.9976372367
C	2.6379863532	6.2103055215	7.9978810233
C	4.4246127086	4.4246127120	7.9973061422
C	6.2103055230	2.6379863332	7.9978810257
C	7.9976372521	0.8443999196	7.9976372420
C	8.8911941470	8.8911941103	-0.0222509906
C	7.1171671420	8.8782036492	1.7587362833
C	8.8782036525	7.1171671323	1.7587362984
C	5.3322012881	8.8766674190	3.5462644868
C	7.1042278971	7.1042279040	3.5342298914
C	8.8766673985	5.3322012854	3.5462644923
C	3.5462644888	8.8766674144	5.3322012639
C	5.3195149600	7.1032457180	5.3195149505
C	7.1032457138	5.3195149504	5.3195149526
C	8.8766674176	3.5462644855	5.3322012799
C	1.7587363019	8.8782036552	7.1171671211
C	3.5342298942	7.1042278919	7.1042278739
C	5.3195149564	5.3195149541	7.1032457132
C	7.1042278970	3.5342298935	7.1042278959
C	8.8782036465	1.7587363013	7.1171671381
C	-0.0222509755	8.8911941646	8.8911940892
C	1.7587362995	7.1171671538	8.8782036381
C	3.5462644937	5.3322012789	8.8766674075
C	5.3322012888	3.5462644908	8.8766674009
C	7.1171671426	1.7587362818	8.8782036506
C	8.8911941331	-0.0222509854	8.8911941331
C	9.7847510151	9.7847510187	0.8443999206
C	7.9974494197	9.7849388538	2.6385197895
C	9.7849388588	7.9974494242	2.6385197947
C	6.2117478990	9.7839590834	4.4256811143
C	7.9977894172	7.9977894180	4.4272324998
C	9.7839590705	6.2117478986	4.4256811130
C	4.4256811087	9.7839590690	6.2117478912
C	6.2127472304	7.9970047708	6.2127472192
C	7.9970047698	6.2127472232	6.2127472219
C	9.7839590731	4.4256811163	6.2117478965
C	2.6385197874	9.7849388677	7.9974494209
C	4.4272325111	7.9977894041	7.9977893893
C	6.2127472307	6.2127472194	7.9970047709
C	7.9977894185	4.4272325019	7.9977894136
C	9.7849388559	2.6385197976	7.9974494240
C	0.8443999183	9.7847510289	9.7847510199
C	2.6385198059	7.9974494370	9.7849388356
C	4.4256811206	6.2117478956	9.7839590688
C	6.2117479010	4.4256811064	9.7839590758
C	7.9974494334	2.6385197843	9.7849388497
C	9.7847510267	0.8443999189	9.7847510210
C	10.6782645304	10.6782645140	-0.0227111609
C	8.9041846241	10.6652211365	1.7587362877
C	10.6652211468	8.9041846203	1.7587362779
C	7.1190643530	10.6633239527	3.5468078852
C	8.8911941409	8.8911941386	3.5348056125
C	10.6633239509	7.1190643470	3.5468078846
C	5.3332421334	10.6628091367	5.3332421395
C	7.1062255235	8.8896807822	5.3207526989
C	8.8896807780	7.1062255210	5.3207527022
C	10.6628091361	5.3332421421	5.3332421391
C	3.5468078891	10.6633239518	7.1190643477
C	5.3207527094	8.8896807822	7.1062255125
C	7.1053036844	7.1053036813	7.1053036804
C	8.8896807826	5.3207527095	7.1062255225
C	10.6633239522	3.5468078885	7.1190643533
C	1.7587362845	10.6652211574	8.9041846268
C	3.5348056268	8.8911941419	8.8911941061
C	5.3207527067	7.1062255193	8.8896807751
C	7.1062255277	5.3207527033	8.8896807876
C	8.8911941442	3.5348056213	8.8911941428
C	10.6652211432	1.7587362991	8.9041846339
C	-0.0227111580	10.6782645250	10.6782645385
C	1.7587362953	8.9041846322	10.6652211203
C	3.5468078926	7.1190643617	10.6633239328
C	5.3332421541	5.3332421479	10.6628091272
C	7.1190643665	3.5468078873	10.6633239465
C	8.9041846379	1.7587362870	10.6652211482
C	10.6782645315	-0.0227111613	10.6782645276
C	11.5721333412	11.5721333486	0.8434297087
C	9.7845072545	11.5720827660	2.6379863334
C	11.5720827623	9.7845072621	2.6379863281
C	7.9984292259	11.5706404023	4.4256811171
C	9.7845988764	9.7845988740	4.4272324999
C	11.5706403902	7.9984292263	4.4256811153
C	6.2122654766	11.5701228149	6.2122654932
C	7.9991351385	9.7832531538	6.2133846822
C	9.7832531394	7.9991351444	6.2133846769
C	11.5701228021	6.2122654911	6.2122654939
C	4.4256811141	11.5706403995	7.9984292288
C	6.2133846797	9.7832531507	7.9991351402
C	7.9983789849	7.9983789869	7.9983789888
C	9.7832531609	6.2133846754	7.9991351429
C	11.5706404027	4.4256811118	7.9984292300
C	2.6379863295	11.5720827772	9.7845072684
C	4.4272325020	9.7845988730	9.7845988643
C	6.2133846821	7.9991351440	9.7832531453
C	7.9991351514	6.2133846864	9.7832531556
C	9.7845988878	4.4272324992	9.7845988813
C	11.5720827863	2.6379863319	9.7845072648
C	0.8434297113	11.5721333371	11.5721333673
C	2.6379863349	9.7845072602	11.5720827569
C	4.4256811192	7.9984292260	11.5706403910
C	6.2122655011	6.2122654915	11.5701228087
C	7.9984292405	4.4256811203	11.5706403946
C	9.7845072707	2.6379863411	11.5720827717
C	11.5721333488	0.8434297113	11.5721333505
C	12.4658638037	12.4658637869	-0.0240974679
C	10.6913893177	12.4525668069	1.7576972785
C	12.4525668042	10.6913893268	1.7576972768
C	8.9057208838	12.4501870123	3.5462644843
C	10.6781603857	10.6781603882	3.5342298842
C	12.4501870008	8.9057208870	3.5462644833
C	7.1195791523	12.4491461575	5.3332421316
C	8.8927075099	10.6761627664	5.3207526993
C	10.6761627669	8.8927075132	5.3207527038
C	12.4491461524	7.1195791701	5.3332421470
C	5.3332421229	12.4491461680	7.1195791606
C	7.1068765507	10.6755117514	7.1068765507
C	8.8911941407	8.8911941503	7.1059845274
C	10.6755117435	7.1068765629	7.1068765549
C	12.4491461612	5.3332421396	7.1195791643
C	3.5462644885	12.4501870145	8.9057208945
C	5.3207527098	10.6761627789	8.8927075138
C	7.1059845308	8.8911941472	8.8911941443
C	8.8911941531	7.1059845285	8.8911941427
C	10.6761627811	5.3207526998	8.8927075185
C	12.4501870261	3.5462644884	8.9057208876
C	1.7576972731	12.4525668053	10.6913893396
C	3.5342298910	10.6781603929	10.6781603819
C	5.3207527071	8.8927075192	10.6761627733
C	7.1068765649	7.1068765632	10.6755117490
C	8.8927075281	5.3207527063	10.6761627729
C	10.6781604056	3.5342298845	10.6781603915
C	12.4525668157	1.7576972777	10.6913893304
C	-0.0240974660	12.4658637871	12.4658638147
C	1.7576972880	10.6913893105	12.4525668126
C	3.5462644980	8.9057208969	12.4501870001
C	5.3332421499	7.1195791735	12.4491461518
C	7.1195791759	5.3332421372	12.4491461567
C	8.9057208908	3.5462644865	12.4501870146
C	10.6913893289	1.7576972875	12.4525668100
C	12.4658637844	-0.0240974628	12.4658638075
C	13.3603704524	13.3603704424	0.8414120931
C	11.5719798548	13.3598370550	2.6363911840
C	13.3598370495	11.5719798593	2.6363911901
C	9.7850821541	13.3577755802	4.4246127037
C	11.5715616216	11.5715616205	4.4260307791
C	13.3577755754	9.7850821544	4.4246126980
C	7.9984292015	13.3567071895	6.2117478906
C	9.7853835167	11.5696410708	6.2127472141
C	11.5696410742	9.7853835177	6.2127472142
C	13.3567071844	7.9984292224	6.2117478962
C	6.2117478817	13.3567071850	7.9984292207
C	7.9991351331	11.5690036278	7.9991351448
C	9.7840093128	9.7840093085	7.9983789834
C	11.5690036202	7.9991351446	7.9991351444
C	13.3567071790	6.2117478935	7.9984292228
C	4.4246127023	13.3577755873	9.7850821646
C	6.2127472268	11.5696410727	9.7853835246
C	7.9983789990	9.7840093099	9.7840093062
C	9.7840093149	7.9983789902	9.7840093068
C	11.5696410791	6.2127472264	9.7853835170
C	13.3577755892	4.4246127139	9.7850821626
C	2.6363911850	13.3598370610	11.5719798664
C	4.4260307906	11.5715616233	11.5715616230
C	6.2127472246	9.7853835273	11.5696410678
C	7.9991351579	7.9991351503	11.5690036272
C	9.7853835280	6.2127472240	11.5696410751
C	11.5715616323	4.4260307799	11.5715616330
C	13.3598370605	2.6363911889	11.5719798610
C	0.8414120896	13.3603704437	13.3603704648
C	2.6363911873	11.5719798587	13.3598370540
C	4.4246127055	9.7850821638	13.3577755791
C	6.2117478937	7.9984292249	13.3567071825
C	7.9984292228	6.2117478926	13.3567071856
C	9.7850821587	4.4246127130	13.3577755832
C	11.5719798600	2.6363911937	13.3598370584
C	13.3603704436	0.8414120926	13.3603704511
C	14.2544090371	14.2544090021	-0.0270229263
C	12.4792701779	14.2408240142	1.7554981644
C	14.2408240159	12.4792701710	1.7554981696
C	10.6925598882	14.2377225179	3.5446657751
C	12.4654701568	12.4654701652	3.5324497375
C	14.2377225118	10.6925598808	3.5446657724
C	8.9057208833	14.2361238008	5.3322012795
C	10.6791425739	12.4628733354	5.3195149485
C	12.4628733373	10.6791425768	5.3195149480
C	14.2361238014	8.9057208882	5.3322012719
C	7.1190643260	14.2355804205	7.1190643428
C	8.8927074929	12.4616355877	7.1062255039
C	10.6770846086	10.6770846087	7.1053036713
C	12.4616355924	8.8927075111	7.1062255206
C	14.2355804156	7.1190643363	7.1190643411
C	5.3322012711	14.2361238128	8.9057208917
C	7.1062255061	12.4616355968	8.8927075069
C	8.8911941427	10.6764037706	8.8911941302
C	10.6764037786	8.8911941473	8.8911941419
C	12.4616355992	7.1062255272	8.8927075098
C	14.2361238153	5.3322012837	8.9057208841
C	3.5446657670	14.2377225207	10.6925598961
C	5.3195149502	12.4628733402	10.6791425754
C	7.1053036880	10.6770846079	10.6770846047
C	8.8911941507	8.8911941505	10.6764037704
C	10.6770846128	7.1053036780	10.6770846080
C	12.4628733386	5.3195149593	10.6791425824
C	14.2377225215	3.5446657806	10.6925598906
C	1.7554981620	14.2408240146	12.4792701895
C	3.5324497398	12.4654701606	12.4654701602
C	5.3195149603	10.6791425810	12.4628733429
C	7.1062255153	8.8927075102	12.4616355887
C	8.8927075163	7.1062255113	12.4616356003
C	10.6791425812	5.3195149531	12.4628733410
C	12.4654701745	3.5324497442	12.4654701727
C	14.2408240129	1.7554981649	12.4792701783
C	-0.0270229356	14.2544090168	14.2544090310
C	1.7554981687	12.4792701681	14.2408240223
C	3.5446657771	10.6925598907	14.2377225162
C	5.3322012742	8.9057208957	14.2361238015
C	7.1190643442	7.1190643489	14.2355804141
C	8.9057208849	5.3322012740	14.2361238176
C	10.6925598932	3.5446657895	14.2377225177
C	12.4792701737	1.7554981739	14.2408240228
C	14.2544090096	-0.0270229259	14.2544090192
C	15.1504220285	15.1504220226	0.8362064131
C	13.3604116886	15.1490281501	2.6333601333
C	15.1490281677	13.3604116819	2.6333601251
C	11.5719798601	15.1459970950	4.4225512463
C	13.3589446351	13.3589446329	4.4234436527
C	15.1459970972	11.5719798522	4.4225512399
C	9.7845072517	15.1444019587	6.2103055220
C	11.5715616184	13.3563575078	6.2108266665
C	13.3563575138	11.5715616166	6.2108266644
C	15.1444019611	9.7845072577	6.2103055143
C	7.9974494129	15.1438684933	7.9974494313
C	9.7845988648	13.3551557797	7.9977893965
C	11.5696410709	11.5696410611	7.9970047658
C	13.3551557959	9.7845988739	7.9977894110
C	15.1438684966	7.9974494176	7.9974494275
C	6.2103055162	15.1444019607	9.7845072690
C	7.9977894103	13.3551557898	9.7845988654
C	9.7832531403	11.5690036031	9.7832531369
C	11.5690036206	9.7832531436	9.7832531455
C	13.3551557952	7.9977894142	9.7845988778
C	15.1444019645	6.2103055222	9.7845072639
C	4.4225512305	15.1459971012	11.5719798728
C	6.2108266655	13.3563575131	11.5715616189
C	7.9970047732	11.5696410721	11.5696410640
C	9.7832531497	9.7832531566	11.5690036108
C	11.5696410728	7.9970047710	11.5696410617
C	13.3563575266	6.2108266645	11.5715616231
C	15.1459971042	4.4225512383	11.5719798666
C	2.6333601247	15.1490281626	13.3604116952
C	4.4234436483	13.3589446410	13.3589446357
C	6.2108266701	11.5715616276	13.3563575181
C	7.9977894025	9.7845988773	13.3551557928
C	9.7845988793	7.9977894133	13.3551557955
C	11.5715616280	6.2108266674	13.3563575130
C	13.3589446507	4.4234436543	13.3589446418
C	15.1490281659	2.6333601227	13.3604116853
C	0.8362064068	15.1504220140	15.1504220391
C	2.6333601299	13.3604116847	15.1490281602
C	4.4225512374	11.5719798655	15.1459971023
C	6.2103055154	9.7845072661	15.1444019581
C	7.9974494290	7.9974494350	15.1438684925
C	9.7845072631	6.2103055278	15.1444019537
C	11.5719798666	4.4225512542	15.1459970983
C	13.3604116873	2.6333601364	15.1490281615
C	15.1504220182	0.8362064049	15.1504220245
C	16.0461799883	16.0461799799	-0.0358420590
C	14.2679483465	16.0314628697	1.7509254113
C	16.0314628827	14.2679483425	1.7509254023
C	12.4792701748	16.0268901161	3.5415642822
C	14.2533761871	14.2533761744	3.5290121190
C	16.0268901224	12.4792701658	3.5415642816
C	10.6913893117	16.0246910067	5.3298214727
C	12.4654701706	14.2499385484	5.3169181303
C	14.2499385528	12.4654701618	5.3169181233
C	16.0246910114	10.6913893088	5.3298214733
C	8.9041846292	16.0236520013	7.1171671587
C	10.6781603817	14.2481583943	7.1042278848
C	12.4628733326	12.4628733307	7.1032457127
C	14.2481584005	10.6781603834	7.1042278849
C	16.0236520005	8.9041846232	7.1171671385
C	7.1171671464	16.0236520134	8.9041846478
C	8.8911941389	14.2475826691	8.8911941280
C	10.6761627621	12.4616355824	8.8896807670
C	12.4616355949	10.6761627686	8.8896807748
C	14.2475826744	8.8911941378	8.8911941366
C	16.0236520176	7.1171671337	8.9041846215
C	5.3298214696	16.0246910076	10.6913893271
C	7.1042278942	14.2481584001	10.6781603876
C	8.8896807774	12.4616355883	10.6761627628
C	10.6755117428	10.6755117414	10.6755117285
C	12.4616355979	8.8896807784	10.6761627728
C	14.2481584044	7.1042278959	10.6781603843
C	16.0246910145	5.3298214681	10.6913893103
C	3.5415642668	16.0268901317	12.4792701809
C	5.3169181236	14.2499385551	12.4654701715
C	7.1032457156	12.4628733386	12.4628733364
C	8.8896807710	10.6761627722	12.4616355944
C	10.6761627729	8.8896807736	12.4616355845
C	12.4628733392	7.1032457159	12.4628733301
C	14.2499385628	5.3169181243	12.4654701724
C	16.0268901246	3.5415642681	12.4792701696
C	1.7509253994	16.0314628692	14.2679483624
C	3.5290121156	14.2533761858	14.2533761864
C	5.3169181221	12.4654701769	14.2499385534
C	7.1042278917	10.6781603954	14.2481584100
C	8.8911941427	8.8911941488	14.2475826714
C	10.6781603990	7.1042278962	14.2481584048
C	12.4654701799	5.3169181281	14.2499385506
C	14.2533761837	3.5290121069	14.2533761770
C	16.0314628713	1.7509253978	14.2679483502
C	-0.0358420614	16.0461799711	16.0461800008
C	1.7509254002	14.2679483264	16.0314628851
C	3.5415642708	12.4792701722	16.0268901266
C	5.3298214739	10.6913893192	16.0246910096
C	7.1171671517	8.9041846474	16.0236520061
C	8.9041846341	7.1171671568	16.0236520062
C	10.6913893161	5.3298214856	16.0246910110
C	12.4792701687	3.5415642846	16.0268901183
C	14.2679483399	1.7509254045	16.0314628751
C	16.0461799634	-0.0358420615	16.0461799990
C	16.9347906312	16.9347906160	0.8475976772
C	15.1504220245	16.9461818700	2.6319662476
C	16.9461818730	15.1504220162	2.6319662577
C	13.3603704488	16.9409761983	4.4220178468
C	15.1490281635	15.1490281612	4.4219766104
C	16.9409762016	13.3603704461	4.4220178473
C	11.5721333444	16.9389585706	6.2102549275
C	13.3598370561	15.1459970951	6.2104084437
C	15.1459970991	13.3598370448	6.2104084385
C	16.9389585686	11.5721333396	6.2102549311
C	9.7847510223	16.9379883798	7.9976372703
C	11.5720827466	15.1444019423	7.9978810220
C	13.3577755640	13.3577755693	7.9973061409
C	15.1444019427	11.5720827552	7.9978810199
C	16.9379883783	9.7847510188	7.9976372448
C	7.9976372693	16.9379883832	9.7847510424
C	9.7849388513	15.1438684922	9.7849388484
C	11.5706403790	13.3567071703	9.7839590621
C	13.3567071885	11.5706403840	9.7839590652
C	15.1438685037	9.7849388444	9.7849388479
C	16.9379883856	7.9976372541	9.7847510158
C	6.2102549233	16.9389585750	11.5721333540
C	7.9978810141	15.1444019555	11.5720827650
C	9.7839590589	13.3567071824	11.5706403806
C	11.5701227984	11.5701227976	11.5701227982
C	13.3567071866	9.7839590719	11.5706403839
C	15.1444019566	7.9978810139	11.5720827607
C	16.9389585805	6.2102549223	11.5721333385
C	4.4220178397	16.9409762024	13.3603704606
C	6.2104084319	15.1459971049	13.3598370590
C	7.9973061348	13.3577755816	13.3577755787
C	9.7839590685	11.5706403918	13.3567071771
C	11.5706403913	9.7839590662	13.3567071775
C	13.3577755786	7.9973061373	13.3577755731
C	15.1459971129	6.2104084322	13.3598370590
C	16.9409762056	4.4220178344	13.3603704471
C	2.6319662496	16.9461818635	15.1504220290
C	4.4219766061	15.1490281632	15.1490281722
C	6.2104084379	13.3598370621	15.1459971025
C	7.9978810230	11.5720827680	15.1444019546
C	9.7849388542	9.7849388562	15.1438685009
C	11.5720827625	7.9978810284	15.1444019565
C	13.3598370592	6.2104084417	15.1459971033
C	15.1490281599	4.4219765997	15.1490281592
C	16.9461818752	2.6319662447	15.1504220123
C	0.8475976820	16.9347906087	16.9347906366
C	2.6319662470	15.1504220134	16.9461818729
C	4.4220178410	13.3603704496	16.9409762083
C	6.2102549252	11.5721333532	16.9389585718
C	7.9976372567	9.7847510448	16.9379883858
C	9.7847510250	7.9976372742	16.9379883796
C	11.5721333446	6.2102549427	16.9389585712
C	13.3603704437	4.4220178524	16.9409761963
C	15.1504220060	2.6319662519	16.9461818773
C	16.9347906050	0.8475976788	16.9347906256
C	16.0461799779	17.8182303529	1.7362083015
C	17.8182303597	16.0461799809	1.7362083255
C	14.2544090130	17.8094111966	3.5279792550
C	16.0314628741	16.0314628734	3.5144399378
C	17.8094112091	14.2544090182	3.5279792753
C	12.4658637843	17.8064857570	5.3165244779
C	14.2408240155	16.0268901278	5.3031181288
C	16.0268901312	14.2408240152	5.3031181298
C	17.8064857514	12.4658637948	5.3165245013
C	10.6782645240	17.8050994478	7.1041237476
C	12.4525667875	16.0246909920	7.0909989615
C	14.2377225053	14.2377224963	7.0898284112
C	16.0246910071	12.4525667946	7.0909989690
C	17.8050994510	10.6782645362	7.1041237506
C	8.8911941481	17.8046392960	8.8911941587
C	10.6652211385	16.0236520041	8.8782036569
C	12.4501869872	14.2361237968	8.8766673963
C	14.2361238013	12.4501870048	8.8766673952
C	16.0236520018	10.6652211327	8.8782036404
C	17.8046392909	8.8911941336	8.8911941284
C	7.1041237506	17.8050994538	10.6782645486
C	8.8782036503	16.0236519917	10.6652211416
C	10.6633239355	14.2355804082	10.6633239351
C	12.4491461436	12.4491461405	10.6628091145
C	14.2355804250	10.6633239382	10.6633239333
C	16.0236520065	8.8782036395	10.6652211331
C	17.8050994619	7.1041237461	10.6782645284
C	5.3165244719	17.8064857585	12.4658637944
C	7.0909989569	16.0246910100	12.4525668037
C	8.8766673886	14.2361238006	12.4501869942
C	10.6628091146	12.4491461511	12.4491461396
C	12.4491461484	10.6628091210	12.4491461449
C	14.2361238000	8.8766673924	12.4501869910
C	16.0246910164	7.0909989531	12.4525667971
C	17.8064857573	5.3165244820	12.4658637850
C	3.5279792594	17.8094112041	14.2544090293
C	5.3031181219	16.0268901339	14.2408240263
C	7.0898284012	14.2377225142	14.2377225076
C	8.8766673892	12.4501870019	14.2361237963
C	10.6633239344	10.6633239391	14.2355804097
C	12.4501870003	8.8766673943	14.2361237945
C	14.2377225122	7.0898284073	14.2377225035
C	16.0268901390	5.3031181119	14.2408240209
C	17.8094112124	3.5279792600	14.2544090168
C	1.7362083103	17.8182303406	16.0461799925
C	3.5144399374	16.0314628766	16.0314628912
C	5.3031181185	14.2408240176	16.0268901333
C	7.0909989603	12.4525668048	16.0246910067
C	8.8782036498	10.6652211455	16.0236520033
C	10.6652211419	8.8782036617	16.0236520087
C	12.4525668030	7.0909989685	16.0246910074
C	14.2408240202	5.3031181246	16.0268901285
C	16.0314628704	3.5144399238	16.0314628712
C	17.8182303474	1.7362083151	16.0461799927
C	1.7362083149	16.0461799630	17.8182303673
C	3.5279792534	14.2544090179	17.8094112053
C	5.3165244747	12.4658637854	17.8064857576
C	7.1041237519	10.6782645574	17.8050994548
C	8.8911941434	8.8911941594	17.8046392949
C	10.6782645359	7.1041237687	17.8050994522
C	12.4658637859	5.3165245040	17.8064857486
C	14.2544090101	3.5279792737	17.8094112081
C	16.0461799716	1.7362083229	17.8182303618
H	0.2202118545	0.2202118794	0.2202118656
H	2.3561738465	1.1199322055	-0.6836570088
H	1.1199321900	2.3561738667	-0.6836570048
H	-0.6836570099	1.1199322167	2.3561738599
H	-0.6836570170	2.3561738799	1.1199322158
H	2.3561738448	-0.6836570056	1.1199321914
H	1.1199322039	-0.6836570068	2.3561738575
H	4.1474393326	2.9107097142	-0.6760058860
H	2.9107097102	4.1474393223	-0.6760058801
H	1.1227234956	4.1482270091	1.1227234944
H	4.1482270045	1.1227235019	1.1227234874
H	-0.6760058651	2.9107096957	4.1474393352
H	-0.6760058663	4.1474393231	2.9107097122
H	1.1227235027	1.1227234870	4.1482270010
H	2.9107096964	-0.6760058716	4.1474393041
H	4.1474393231	-0.6760058763	2.9107096957
H	5.9354564745	4.6986321460	-0.6730569315
H	4.6986321254	5.9354564497	-0.6730569356
H	2.9110498682	5.9357359119	1.1279778202
H	5.9357358981	2.9110498575	1.1279778162
H	1.1279778190	5.9357358963	2.9110498708
H	5.9357359113	1.1279778157	2.9110498589
H	-0.6730569148	4.6986321331	5.9354564817
H	-0.6730569180	5.9354564643	4.6986321418
H	1.1279778381	2.9110498656	5.9357359133
H	2.9110498810	1.1279778254	5.9357359106
H	4.6986321357	-0.6730569320	5.9354564514
H	5.9354564653	-0.6730569371	4.6986321513
H	7.7227957884	6.4859537632	-0.6716683572
H	6.4859537786	7.7227957504	-0.6716683573
H	4.6986155327	7.7232330355	1.1303741807
H	7.7232330184	4.6986155171	1.1303741771
H	2.9149522979	7.7215019627	2.9149522853
H	7.7215019555	2.9149522980	2.9149522854
H	1.1303741808	7.7232330178	4.6986155232
H	7.7232330346	1.1303741738	4.6986155295
H	-0.6716683540	6.4859537812	7.7227957745
H	-0.6716683447	7.7227957690	6.4859537689
H	1.1303741831	4.6986155357	7.7232330377
H	2.9149522939	2.9149522921	7.7215019554
H	4.6986155235	1.1303741900	7.7232330327
H	6.4859537704	-0.6716683680	7.7227957523
H	7.7227957506	-0.6716683653	6.4859537647
H	9.5096167846	8.2727714618	-0.6712077842
H	8.2727714813	9.5096167362	-0.6712077825
H	6.4855568709	9.5101386219	1.1314989921
H	9.5101386312	6.4855568605	1.1314990141
H	4.7017989717	9.5079519505	2.9167486980
H	9.5079519316	4.7017989649	2.9167487090
H	2.9167487056	9.5079519553	4.7017989541
H	9.5079519635	2.9167487071	4.7017989686
H	1.1314990132	9.5101386282	6.4855568470
H	9.5101386201	1.1314989984	6.4855568815
H	-0.6712077780	8.2727715130	9.5096167216
H	-0.6712078007	9.5096167795	8.2727714517
H	1.1314989984	6.4855568923	9.5101386142
H	2.9167487173	4.7017989676	9.5079519562
H	4.7017989708	2.9167487083	9.5079519401
H	6.4855568795	1.1314989879	9.5101386300
H	9.5096167670	-0.6712077853	8.2727714881
H	8.2727714847	-0.6712077962	9.5096167567
H	11.2964344890	10.0595924947	-0.6716683714
H	10.0595925036	11.2964344687	-0.6716683725
H	8.2722496572	11.2968314022	1.1314989845
H	11.2968314114	8.2722496529	1.1314989764
H	6.4881828278	11.2942054723	2.9173542428
H	11.2942054634	6.4881828144	2.9173542382
H	4.7029925937	11.2936075681	4.7029925998
H	11.2936075564	4.7029925999	4.7029925894
H	2.9173542353	11.2942054775	6.4881828373
H	11.2942054810	2.9173542540	6.4881828276
H	1.1314989820	11.2968314269	8.2722496670
H	11.2968314052	1.1314989912	8.2722496676
H	-0.6716683726	10.0595925057	11.2964345008
H	-0.6716683682	11.2964344850	10.0595925197
H	1.1314989866	8.2722496574	11.2968313725
H	2.9173542670	6.4881828391	11.2942054727
H	4.7029926087	4.7029926024	11.2936075462
H	6.4881828369	2.9173542421	11.2942054642
H	8.2722496715	1.1314989769	11.2968314083
H	11.2964344888	-0.6716683841	10.0595925137
H	10.0595925113	-0.6716683767	11.2964344855
H	13.0837561412	11.8469318007	-0.6730569233
H	11.8469318294	13.0837561292	-0.6730569326
H	10.0591552495	13.0837727506	1.1303741657
H	13.0837727501	10.0591552588	1.1303741706
H	8.2744363445	13.0805893322	2.9167487072
H	13.0805893281	8.2744363541	2.9167487085
H	6.4887807329	13.0793956984	4.7029925793
H	13.0793956991	6.4887807576	4.7029925941
H	4.7029925724	13.0793957072	6.4887807401
H	13.0793957012	4.7029925899	6.4887807460
H	2.9167487036	13.0805893324	8.2744363642
H	13.0805893298	2.9167487013	8.2744363405
H	1.1303741595	13.0837727596	10.0591552852
H	13.0837727546	1.1303741648	10.0591552579
H	-0.6730569249	11.8469318161	13.0837561665
H	-0.6730569282	13.0837561159	11.8469318249
H	1.1303741771	10.0591552409	13.0837727577
H	2.9167487173	8.2744363505	13.0805893117
H	4.7029925915	6.4887807574	13.0793956856
H	6.4887807539	4.7029925906	13.0793956946
H	8.2744363586	2.9167487020	13.0805893321
H	10.0591552567	1.1303741782	13.0837727517
H	11.8469317986	-0.6730569205	13.0837561449
H	13.0837561269	-0.6730569188	11.8469318241
H	14.8716786006	13.6349489438	-0.6760058625
H	13.6349489723	14.8716785682	-0.6760058565
H	11.8466523779	14.8713383928	1.1279778128
H	14.8713383990	11.8466523792	1.1279778143
H	10.0608863395	14.8674360052	2.9149522728
H	14.8674360063	10.0608863335	2.9149522782
H	8.2744363458	14.8656395777	4.7017989579
H	14.8656395691	8.2744363595	4.7017989320
H	6.4881828078	14.8650340729	6.4881828219
H	14.8650340601	6.4881828141	6.4881828179
H	4.7017989375	14.8656395801	8.2744363628
H	14.8656395893	4.7017989453	8.2744363613
H	2.9149522702	14.8674360098	10.0608863412
H	14.8674360119	2.9149522817	10.0608863398
H	1.1279778062	14.8713384038	11.8466524025
H	14.8713384118	1.1279778237	11.8466523840
H	-0.6760058633	13.6349489513	14.8716786019
H	-0.6760058686	14.8716785788	13.6349489662
H	1.1279778293	11.8466523686	14.8713384156
H	2.9149522769	10.0608863399	14.8674360053
H	4.7017989462	8.2744363576	14.8656395685
H	6.4881828166	6.4881828264	14.8650340519
H	8.2744363487	4.7017989476	14.8656395871
H	10.0608863290	2.9149522919	14.8674359972
H	11.8466523787	1.1279778331	14.8713384184
H	14.8716785612	-0.6760058783	13.6349489592
H	13.6349489470	-0.6760058649	14.8716785775
H	16.6624561028	15.4262144487	-0.6836570072
H	15.4262144676	16.6624560928	-0.6836570187
H	13.6341612795	16.6596647780	1.1227234991
H	16.6596647889	13.6341612752	1.1227234878
H	11.8466523746	16.6544104639	2.9110499004
H	16.6544104582	11.8466523535	2.9110498999
H	10.0591552557	16.6520141288	4.6986155310
H	16.6520141248	10.0591552651	4.6986155100
H	8.2722496295	16.6508892767	6.4855568965
H	16.6508892704	8.2722496350	6.4855568597
H	6.4855568778	16.6508892929	8.2722496608
H	16.6508892944	6.4855568673	8.2722496292
H	4.6986155174	16.6520141289	10.0591552799
H	16.6520141276	4.6986155091	10.0591552624
H	2.9110498713	16.6544104644	11.8466523792
H	16.6544104483	2.9110498630	11.8466523694
H	1.1227234838	16.6596647675	13.6341612868
H	16.6596647728	1.1227234858	13.6341612693
H	-0.6836570106	15.4262144475	16.6624561197
H	-0.6836570039	16.6624560979	15.4262144741
H	1.1227234857	13.6341612469	16.6596647813
H	2.9110498832	11.8466523638	16.6544104644
H	4.6986155251	10.0591552602	16.6520141242
H	6.4855568791	8.2722496572	16.6508892810
H	8.2722496467	6.4855568914	16.6508892885
H	10.0591552646	4.6986155389	16.6520141340
H	11.8466523607	2.9110498907	16.6544104463
H	13.6341612541	1.1227235037	16.6596647751
H	16.6624560765	-0.6836570241	15.4262144787
H	15.4262144405	-0.6836570223	16.6624561066
H	17.5621764274	17.5621764068	0.2202118419
H	16.6624560842	18.4660453071	2.3561738359
H	15.4262144660	18.4660453121	1.1199321802
H	18.4660453088	16.6624560879	2.3561738642
H	18.4660453156	15.4262144641	1.1199322037
H	14.8716785901	18.4583941380	4.1474392988
H	13.6349489542	18.4583941527	2.9107097067
H	16.6596648032	16.6596648072	4.1482269623
H	18.4583941248	14.8716786056	4.1474393339
H	18.4583941512	13.6349489529	2.9107097211
H	13.0837561333	18.4554451985	5.9354564717
H	11.8469317960	18.4554451953	4.6986321234
H	14.8713384101	16.6544104705	5.9357359208
H	16.6544104665	14.8713384174	5.9357359195
H	18.4554452088	13.0837561355	5.9354564853
H	18.4554452051	11.8469318070	4.6986321598
H	11.2964344924	18.4540566584	7.7227957606
H	10.0595925052	18.4540566577	6.4859537833
H	13.0837727273	16.6520141116	7.7232330257
H	14.8674359904	14.8674359988	7.7215019583
H	16.6520141325	13.0837727232	7.7232330360
H	18.4540566540	11.2964345034	7.7227957722
H	18.4540566437	10.0595925125	6.4859537756
H	9.5096167788	18.4535961079	9.5096167906
H	8.2727714882	18.4535960664	8.2727715014
H	11.2968314151	16.6508892878	9.5101386305
H	13.0805893268	14.8656395508	9.5079519381
H	14.8656395488	13.0805893300	9.5079519582
H	16.6508892778	11.2968313995	9.5101386316
H	18.4535961113	9.5096167656	9.5096167487
H	18.4535960792	8.2727714778	8.2727714818
H	7.7227957549	18.4540566638	11.2964345268
H	6.4859537896	18.4540566570	10.0595925196
H	9.5101386276	16.6508892676	11.2968314253
H	11.2942054517	14.8650340434	11.2942054720
H	13.0793956944	13.0793956847	11.2936075309
H	14.8650340607	11.2942054592	11.2942054658
H	16.6508892852	9.5101386252	11.2968314007
H	18.4540566756	7.7227957699	11.2964344854
H	18.4540566663	6.4859537699	10.0595925112
H	5.9354564543	18.4554452056	13.0837561475
H	4.6986321307	18.4554452102	11.8469318053
H	7.7232330213	16.6520141301	13.0837727412
H	9.5079519426	14.8656395546	13.0805893234
H	11.2936075284	13.0793956954	13.0793956896
H	13.0793956994	11.2936075312	13.0793956922
H	14.8656395499	9.5079519523	13.0805893139
H	16.6520141341	7.7232330158	13.0837727372
H	18.4554452184	5.9354564736	13.0837561174
H	18.4554452143	4.6986321410	11.8469318015
H	4.1474393026	18.4583941401	14.8716786162
H	2.9107097054	18.4583941546	13.6349489704
H	5.9357359172	16.6544104580	14.8713384368
H	7.7215019520	14.8674360055	14.8674360025
H	9.5079519448	13.0805893348	14.8656395444
H	11.2942054549	11.2942054700	14.8650340484
H	13.0805893255	9.5079519464	14.8656395529
H	14.8674360149	7.7215019515	14.8674359967
H	16.6544104689	5.9357359066	14.8713384269
H	18.4583941324	4.1474393188	14.8716785989
H	18.4583941564	2.9107097123	13.6349489451
H	2.3561738448	18.4660452953	16.6624560977
H	1.1199321857	18.4660453019	15.4262144840
H	4.1482269762	16.6596648049	16.6596648153
H	5.9357359082	14.8713384294	16.6544104660
H	7.7232330212	13.0837727473	16.6520141260
H	9.5101386389	11.2968314224	16.6508892745
H	11.2968314156	9.5101386492	16.6508892813
H	13.0837727429	7.7232330326	16.6520141275
H	14.8713384285	5.9357359177	16.6544104574
H	16.6596647961	4.1482269614	16.6596647961
H	18.4660452939	2.3561738558	16.6624560973
H	18.4660453042	1.1199321903	15.4262144794
H	0.2202118555	17.5621764132	17.5621764280
H	2.3561738556	16.6624560709	18.4660453166
H	1.1199322029	15.4262144442	18.4660453300
H	4.1474392910	14.8716785941	18.4583941546
H	2.9107097122	13.6349489589	18.4583941703
H	5.9354564630	13.0837561340	18.4554452066
H	4.6986321355	11.8469317961	18.4554452115
H	7.7227957593	11.2964345330	18.4540566639
H	6.4859537809	10.0595925256	18.4540566490
H	9.5096167664	9.5096167929	18.4535961104
H	8.2727714888	8.2727715045	18.4535960723
H	11.2964344945	7.7227957837	18.4540566710
H	10.0595925199	6.4859537973	18.4540566606
H	13.0837561249	5.9354564910	18.4554452068
H	11.8469318013	4.6986321620	18.4554452045
H	14.8716785940	4.1474393308	18.4583941290
H	13.6349489412	2.9107097243	18.4583941528
H	16.6624560777	2.3561738592	18.4660453138
H	15.4262144604	1.1199322065	18.4660453286
H	17.5621764086	0.2202118650	17.5621764305
