58
opt
C	0.8791045549	0.8791045552	0.8791045551
C	1.7687530281	1.7687530234	-0.0059202134
C	-0.0059202148	1.7687530242	1.7687530262
C	1.7687530283	-0.0059202129	1.7687530256
C	2.6673582394	2.6673582503	0.8624154889
C	0.8624154863	2.6673582473	2.6673582425
C	2.6673582423	0.8624154908	2.6673582484
C	3.5659634724	3.5659634698	-0.0059202079
C	1.7826244388	3.5520920413	1.7826244418
C	3.5520920341	1.7826244488	1.7826244467
C	-0.0059202106	3.5659634701	3.5659634713
C	1.7826244411	1.7826244462	3.5520920384
C	3.5659634728	-0.0059202056	3.5659634714
C	4.4556119486	4.4556119574	0.8791045469
C	2.6673582285	4.4723009955	2.6673582296
C	4.4723009937	2.6673582337	2.6673582327
C	0.8791045474	4.4556119555	4.4556119516
C	2.6673582298	2.6673582318	4.4723009948
C	4.4556119502	0.8791045462	4.4556119551
C	3.5659634628	5.3406366999	1.7687530317
C	5.3406366968	3.5659634593	1.7687530300
C	1.7687530312	5.3406366995	3.5659634647
C	3.5520920214	3.5520920236	3.5520920226
C	5.3406366974	1.7687530306	3.5659634575
C	1.7687530304	3.5659634632	5.3406366982
C	3.5659634595	1.7687530315	5.3406366992
H	0.2421804957	0.2421804690	0.2421804806
H	2.3968190251	1.1432068131	-0.6652512065
H	1.1432068202	2.3968190145	-0.6652512145
H	-0.6652512106	1.1432068125	2.3968190191
H	-0.6652512141	2.3968190145	1.1432068156
H	2.3968190233	-0.6652512073	1.1432068146
H	1.1432068187	-0.6652512118	2.3968190173
H	4.1915096866	2.9378974696	-0.6652511943
H	2.9378974764	4.1915096836	-0.6652511988
H	1.1433863230	4.1913301181	1.1433863226
H	4.1913301178	1.1433863330	1.1433863337
H	-0.6652511970	2.9378974756	4.1915096912
H	-0.6652511990	4.1915096899	2.9378974785
H	1.1433863281	1.1433863271	4.1913301184
H	4.1915096819	-0.6652511939	2.9378974681
H	2.9378974719	-0.6652511965	4.1915096803
H	5.0925360407	5.0925360321	0.2421804961
H	4.1915096612	5.9999676777	2.3968190570
H	2.9378974729	5.9999677168	1.1432068366
H	5.9999676800	4.1915096785	2.3968190292
H	5.9999677136	2.9378974912	1.1432068127
H	2.3968190573	5.9999676758	4.1915096639
H	1.1432068344	5.9999677157	2.9378974757
H	4.1913301317	4.1913301239	4.1913301272
H	5.9999676819	2.3968190292	4.1915096760
H	5.9999677147	1.1432068147	2.9378974885
H	0.2421805030	5.0925360383	5.0925360420
H	2.3968190441	4.1915096726	5.9999676768
H	1.1432068230	2.9378974848	5.9999677144
H	4.1915096674	2.3968190437	5.9999676806
H	2.9378974793	1.1432068271	5.9999677167
H	5.0925360361	0.2421804902	5.0925360310
