240
opt
C	0.8557961984	0.8557962008	0.8557962014
C	1.7456645433	1.7456645407	-0.0287732919
C	-0.0287732927	1.7456645451	1.7456645441
C	1.7456645367	-0.0287732943	1.7456645437
C	2.6433772663	2.6433772621	0.8411307053
C	0.8411307047	2.6433772627	2.6433772656
C	2.6433772609	0.8411307011	2.6433772657
C	3.5414961189	3.5414961272	-0.0210625574
C	1.7604086976	3.5270825412	1.7604086981
C	3.5270825433	1.7604086931	1.7604086998
C	-0.0210625589	3.5414961237	3.5414961226
C	1.7604086989	1.7604086966	3.5270825467
C	3.5414961202	-0.0210625611	3.5414961245
C	4.4379260733	4.4379260801	0.8450403380
C	2.6425969096	4.4392559940	2.6425969090
C	4.4392559951	2.6425969094	2.6425969090
C	0.8450403367	4.4379260807	4.4379260700
C	2.6425969103	2.6425969087	4.4392559980
C	4.4379260785	0.8450403353	4.4379260749
C	5.3347164739	5.3347164922	-0.0196135934
C	3.5551793051	5.3208188959	1.7633101651
C	5.3208188937	3.5551793100	1.7633101640
C	1.7633101664	5.3208188961	3.5551793034
C	3.5418878624	3.5418878598	3.5418878642
C	5.3208188965	1.7633101664	3.5551793078
C	-0.0196135945	5.3347164993	5.3347164626
C	1.7633101616	3.5551793109	5.3208188945
C	3.5551793104	1.7633101614	5.3208188985
C	5.3347164969	-0.0196135952	5.3347164757
C	6.2315068897	6.2315068947	0.8450403395
C	4.4364712821	6.2329616909	2.6438044730
C	6.2329616878	4.4364712840	2.6438044727
C	2.6438044716	6.2329616931	4.4364712812
C	4.4383731996	4.4383731972	4.4383731994
C	6.2329616931	2.6438044704	4.4364712817
C	0.8450403339	6.2315068966	6.2315068870
C	2.6438044737	4.4364712853	6.2329616877
C	4.4364712866	2.6438044717	6.2329616915
C	6.2315068959	0.8450403349	6.2315068929
C	7.1279368438	7.1279368492	-0.0210625602
C	5.3486140715	7.1142536629	1.7633101622
C	7.1142536597	5.3486140727	1.7633101595
C	3.5563626126	7.1130703600	3.5563626115
C	5.3347164924	5.3347164933	3.5433723555
C	7.1130703601	3.5563626092	3.5563626083
C	1.7633101621	7.1142536644	5.3486140702
C	3.5433723552	5.3347164937	5.3347164911
C	5.3347164956	3.5433723532	5.3347164938
C	7.1142536644	1.7633101604	5.3486140740
C	-0.0210625640	7.1279368514	7.1279368379
C	1.7633101593	5.3486140752	7.1142536566
C	3.5563626098	3.5563626079	7.1130703596
C	5.3486140752	1.7633101577	7.1142536640
C	7.1279368491	-0.0210625634	7.1279368441
C	8.0260557018	8.0260556999	0.8411307015
C	6.2301769725	8.0268360596	2.6425969111
C	8.0268360587	6.2301769734	2.6425969090
C	4.4364712815	8.0256285021	4.4364712834
C	6.2310597793	6.2310597759	4.4383731988
C	8.0256285031	4.4364712787	4.4364712827
C	2.6425969083	8.0268360623	6.2301769726
C	4.4383731989	6.2310597789	6.2310597780
C	6.2310597819	4.4383731953	6.2310597798
C	8.0268360627	2.6425969065	6.2301769740
C	0.8411306972	8.0260557040	8.0260557027
C	2.6425969053	6.2301769759	8.0268360595
C	4.4364712827	4.4364712794	8.0256284991
C	6.2301769762	2.6425969054	8.0268360617
C	8.0260557045	0.8411306981	8.0260557040
C	8.9237684207	8.9237684214	-0.0287732990
C	7.1423504204	8.9090242689	1.7604086933
C	8.9090242725	7.1423504208	1.7604086920
C	5.3486140735	8.9061228111	3.5551793070
C	7.1275451126	7.1275451107	3.5418878612
C	8.9061228098	5.3486140723	3.5551793073
C	3.5551793074	8.9061228111	5.3486140744
C	5.3347164889	7.1260606207	5.3347164851
C	7.1260606226	5.3347164833	5.3347164864
C	8.9061228117	3.5551793000	5.3486140718
C	1.7604086941	8.9090242722	7.1423504232
C	3.5418878589	7.1275451102	7.1275451103
C	5.3347164866	5.3347164819	7.1260606201
C	7.1275451129	3.5418878566	7.1275451134
C	8.9090242741	1.7604086900	7.1423504239
C	-0.0287733035	8.9237684241	8.9237684225
C	1.7604086921	7.1423504244	8.9090242700
C	3.5551793077	5.3486140728	8.9061228055
C	5.3486140754	3.5551793048	8.9061228075
C	7.1423504255	1.7604086923	8.9090242725
C	8.9237684259	-0.0287733046	8.9237684232
C	9.8136367629	9.8136367643	0.8557961954
C	8.0260557031	9.8283022640	2.6433772595
C	9.8283022656	8.0260557042	2.6433772559
C	6.2315068973	9.8243926330	4.4379260766
C	8.0268360632	8.0268360604	4.4392559916
C	9.8243926349	6.2315068931	4.4379260754
C	4.4379260783	9.8243926346	6.2315068953
C	6.2329616914	8.0256285017	6.2329616923
C	8.0256285037	6.2329616874	6.2329616929
C	9.8243926335	4.4379260718	6.2315068909
C	2.6433772569	9.8283022657	8.0260557034
C	4.4392559884	8.0268360588	8.0268360632
C	6.2329616888	6.2329616872	8.0256285062
C	8.0268360597	4.4392559903	8.0268360639
C	9.8283022675	2.6433772552	8.0260557028
C	0.8557961929	9.8136367655	9.8136367635
C	2.6433772545	8.0260557066	9.8283022656
C	4.4379260733	6.2315068942	9.8243926376
C	6.2315068969	4.4379260747	9.8243926357
C	8.0260557095	2.6433772575	9.8283022679
C	9.8136367696	0.8557961941	9.8136367635
C	8.9237684166	10.6982062627	1.7456645335
C	10.6982062599	8.9237684226	1.7456645312
C	7.1279368480	10.6904955263	3.5414961176
C	8.9090242750	8.9090242742	3.5270825376
C	10.6904955293	7.1279368550	3.5414961204
C	5.3347164906	10.6890465637	5.3347164873
C	7.1142536683	8.9061228099	5.3208188964
C	8.9061228114	7.1142536633	5.3208188982
C	10.6890465630	5.3347164847	5.3347164875
C	3.5414961236	10.6904955282	7.1279368501
C	5.3208188937	8.9061228071	7.1142536675
C	7.1130703595	7.1130703566	7.1130703634
C	8.9061228090	5.3208188897	7.1142536649
C	10.6904955303	3.5414961223	7.1279368508
C	1.7456645321	10.6982062631	8.9237684177
C	3.5270825357	8.9090242728	8.9090242733
C	5.3208188949	7.1142536661	8.9061228147
C	7.1142536689	5.3208188971	8.9061228151
C	8.9090242750	3.5270825351	8.9090242744
C	10.6982062655	1.7456645371	8.9237684241
C	1.7456645331	8.9237684260	10.6982062622
C	3.5414961161	7.1279368447	10.6904955275
C	5.3347164884	5.3347164865	10.6890465648
C	7.1279368484	3.5414961228	10.6904955301
C	8.9237684289	1.7456645337	10.6982062648
H	0.2189564966	0.2189565036	0.2189564981
H	2.3741845212	1.1205423501	-0.6878596669
H	1.1205423527	2.3741845243	-0.6878596645
H	-0.6878596674	1.1205423532	2.3741845206
H	-0.6878596658	2.3741845246	1.1205423485
H	1.1205423457	-0.6878596704	2.3741845217
H	2.3741845149	-0.6878596723	1.1205423532
H	4.1692386942	2.9156332912	-0.6810008161
H	2.9156332745	4.1692386940	-0.6810008137
H	1.1231088432	4.1699894824	1.1231088507
H	4.1699894860	1.1231088460	1.1231088470
H	-0.6810008186	2.9156332858	4.1692386923
H	-0.6810008082	4.1692386985	2.9156332824
H	1.1231088517	1.1231088574	4.1699895038
H	2.9156332874	-0.6810008190	4.1692387007
H	4.1692386941	-0.6810008144	2.9156332834
H	5.9615431511	4.7078898054	-0.6793945247
H	4.7078897887	5.9615431680	-0.6793945253
H	2.9153963056	5.9619563921	1.1266379810
H	5.9619563963	2.9153963131	1.1266379831
H	1.1266379801	5.9619563934	2.9153963067
H	5.9619563922	1.1266379785	2.9153963104
H	-0.6793945248	4.7078898086	5.9615431406
H	-0.6793945308	5.9615431731	4.7078897765
H	1.1266379718	2.9153963238	5.9619563982
H	2.9153963183	1.1266379739	5.9619563991
H	4.7078898077	-0.6793945234	5.9615431520
H	5.9615431738	-0.6793945268	4.7078897913
H	7.7537996739	6.5001942643	-0.6810008140
H	6.5001942630	7.7537996869	-0.6810008102
H	4.7074765797	7.7540366672	1.1266379800
H	7.7540366566	4.7074765700	1.1266379808
H	2.9171212977	7.7523116800	2.9171212904
H	7.7523116758	2.9171212862	2.9171212924
H	1.1266379857	7.7540366712	4.7074765755
H	7.7540366695	1.1266379804	4.7074765804
H	-0.6810008207	6.5001942694	7.7537996709
H	-0.6810008153	7.7537996932	6.5001942617
H	1.1266379741	4.7074765769	7.7540366528
H	2.9171212907	2.9171212908	7.7523116772
H	4.7074765789	1.1266379735	7.7540366630
H	6.5001942750	-0.6810008166	7.7537996806
H	7.7537996909	-0.6810008144	6.5001942703
H	9.5488906074	8.2952484393	-0.6878596742
H	8.2952484366	9.5488906106	-0.6878596721
H	6.4994434804	9.5463241196	1.1231088391
H	9.5463241217	6.4994434801	1.1231088378
H	4.7074765754	9.5427949926	2.9153963072
H	9.5427949886	4.7074765747	2.9153963033
H	2.9153963075	9.5427949954	4.7074765784
H	9.5427949928	2.9153962996	4.7074765725
H	1.1231088385	9.5463241252	6.4994434853
H	9.5463241205	1.1231088288	6.4994434863
H	-0.6878596767	8.2952484442	9.5488906144
H	-0.6878596723	9.5488906135	8.2952484362
H	1.1231088387	6.4994434789	9.5463241171
H	2.9153963090	4.7074765755	9.5427949901
H	4.7074765783	2.9153963040	9.5427949904
H	6.4994434795	1.1231088428	9.5463241227
H	9.5488906204	-0.6878596729	8.2952484389
H	8.2952484432	-0.6878596757	9.5488906156
H	10.4504764572	10.4504764660	0.2189564888
H	9.5488906114	11.3572926357	2.3741845104
H	8.2952484390	11.3572926353	1.1205423385
H	11.3572926338	9.5488906151	2.3741845113
H	11.3572926359	8.2952484479	1.1205423385
H	7.7537996965	11.3504337704	4.1692386947
H	6.5001942745	11.3504337891	2.9156332858
H	9.5463241226	9.5463241249	4.1699894813
H	11.3504337755	7.7537996965	4.1692387026
H	11.3504337905	6.5001942826	2.9156332844
H	5.9615431674	11.3488274989	5.9615431680
H	4.7078898071	11.3488274914	4.7078898023
H	7.7540366675	9.5427949920	5.9619563931
H	9.5427950008	7.7540366568	5.9619563930
H	11.3488274953	5.9615431638	5.9615431711
H	11.3488274902	4.7078898017	4.7078898029
H	4.1692386972	11.3504337766	7.7537997015
H	2.9156332896	11.3504337939	6.5001942777
H	5.9619563949	9.5427949870	7.7540366647
H	7.7523116793	7.7523116714	7.7523116866
H	9.5427949900	5.9619563860	7.7540366664
H	11.3504337771	4.1692386997	7.7537996957
H	11.3504337950	2.9156332913	6.5001942776
H	2.3741845087	11.3572926366	9.5488906118
H	1.1205423373	11.3572926373	8.2952484429
H	4.1699894867	9.5463241191	9.5463241185
H	5.9619563898	7.7540366577	9.5427950049
H	7.7540366625	5.9619563916	9.5427950040
H	9.5463241209	4.1699894849	9.5463241212
H	11.3572926401	2.3741845195	9.5488906136
H	11.3572926383	1.1205423439	8.2952484484
H	0.2189564833	10.4504764648	10.4504764580
H	2.3741845109	9.5488906174	11.3572926373
H	1.1205423372	8.2952484500	11.3572926356
H	4.1692386877	7.7537996931	11.3504337766
H	2.9156332803	6.5001942827	11.3504337946
H	5.9615431659	5.9615431622	11.3488275064
H	4.7078898063	4.7078898006	11.3488274930
H	7.7537996950	4.1692386988	11.3504337769
H	6.5001942789	2.9156332888	11.3504337944
H	9.5488906196	2.3741845109	11.3572926410
H	8.2952484570	1.1205423402	11.3572926445
H	10.4504764723	0.2189564898	10.4504764611
