14
Orthohydroxyphenol
C    -0.015114    -1.402068     0.002015
C     1.192641    -0.713507     0.000425
C     1.209932     0.687705    -0.001710
C     0.007038     1.388120    -0.002238
C    -1.204547     0.697047    -0.000492
C    -1.220002    -0.696516     0.001609
O     2.432449    -1.316307     0.000571
O     2.390173     1.370411    -0.003148
H     0.041277     2.469510    -0.003883
H    -2.134037     1.250375    -0.000785
H    -2.157313    -1.235921     0.002860
H    -0.011764    -2.486598     0.003484
H     2.308715    -2.270850     0.003482
H     3.097465     0.712395    -0.002191
