13

O         -0.7069201920    0.0458303670    0.0063861040
H          0.2656236150    0.0717101430    0.0013392930
C         -1.0766706670   -1.3139158130    0.0016142800
H         -2.1629235760   -1.3631957700    0.0058654240
H         -0.7234059450   -1.8446516760   -0.8877434980
H         -0.7160797780   -1.8528208280    0.8830797750
GHOST-N    2.2012724400   -0.0364208730   -0.0033383900
GHOST-H    2.5718919920    0.4713556330    0.7897940010
GHOST-H    2.5720152800    0.4279176940   -0.8225972240
GHOST-C    2.6790243760   -1.4224543200    0.0341228150
GHOST-H    2.2871395390   -1.9564795970   -0.8280689140
GHOST-H    3.7657355320   -1.5291894880    0.0371573100
GHOST-H    2.2868979750   -1.9091844890    0.9237549620
