16

N         -0.0554535700   -0.9479909030    0.0100102760
H         -0.0573160940   -1.9577133000    0.0550528670
C         -1.3139597060   -0.3351449790   -0.0645862210
O         -2.3288966430   -1.0079008670   -0.1231027330
C         -1.2483587740    1.1160519090   -0.0665086040
H         -2.1643493720    1.6753329790   -0.1471024400
C         -0.0530801030    1.7314274850    0.0341954110
H          0.0481105420    2.8064298640    0.0434196780
N          1.1159262820    1.0275910730    0.1351689300
H          1.9966551540    1.4972797620    0.2616202910
C          1.1753469980   -0.3538046980    0.1761661570
O          2.2146314570   -0.9664654210    0.3351725000
GHOST-C    0.7078518390   -0.1723022120    3.2763513580
GHOST-H    1.7036701090   -0.5262880650    3.1621326280
GHOST-C   -0.4367522460    0.2141554740    3.3825432000
GHOST-H   -1.4416348010    0.5428558160    3.4829073660
