132

C   -0.7265072800   -1.2222584900   -3.2471554700
C    0.7265072800   -1.2222584900   -3.2471554700
C   -1.4217605400   -0.0180445100   -3.2471554700
C    1.4217605400   -0.0180445100   -3.2471554700
C    2.5972740700    0.1421720200   -2.4082577200
C    1.1755124500   -2.3203913400   -2.4082577200
C    2.3004570500   -2.1670676000   -1.6054479300
C    3.0269641200   -0.9087204400   -1.6054479300
C   -3.0269641200   -0.9087204400   -1.6054479300
C   -2.3004570500   -2.1670676000   -1.6054479300
C   -2.5972740700    0.1421720200   -2.4082577200
C   -1.1755124500   -2.3203913400   -2.4082577200
C    0.0000000000   -2.9990729000   -1.8897904300
C   -2.3004591400   -2.6855341800   -0.2480819100
C   -1.1755112500   -3.3350231500    0.2480819100
C    0.0000000000   -3.4952372900   -0.5908163400
C   -3.0269642900    1.7476186500   -0.5908163400
C   -3.4759704000    0.6494889700    0.2480819100
C   -2.5972733200    1.4995364500   -1.8897904300
C   -3.4759704000   -0.6494889700   -0.2480819100
C   -3.0269642900   -1.7476186500    0.5908163400
C   -3.0269641200    0.9087204400    1.6054479300
C   -2.5972740700   -0.1421720200    2.4082577200
C   -2.5972733200   -1.4995364500    1.8897904300
C   -0.7265070700    3.0757880400   -1.6054479300
C   -1.1755112500    3.3350231500   -0.2480819100
C   -1.4217616200    2.1782193200   -2.4082577200
C   -2.3004591400    2.6855341800    0.2480819100
C   -2.3004570500    2.1670676000    1.6054479300
C   -0.0000000000    3.4952372900    0.5908163400
C   -0.0000000000    2.9990729000    1.8897904300
C   -1.1755124500    2.3203913400    2.4082577200
C    0.6952532600    1.2403030000   -3.2471554700
C    1.4217616200    2.1782193200   -2.4082577200
C   -0.6952532600    1.2403030000   -3.2471554700
C    0.7265070700    3.0757880400   -1.6054479300
C    1.1755112500    3.3350231500   -0.2480819100
C    2.5972733200    1.4995364500   -1.8897904300
C    3.0269642900    1.7476186500   -0.5908163400
C    2.3004591400    2.6855341800    0.2480819100
C    0.7265072800    1.2222584900    3.2471554700
C    1.1755124500    2.3203913400    2.4082577200
C    2.3004570500    2.1670676000    1.6054479300
C    1.4217605400    0.0180445100    3.2471554700
C   -0.6952532600   -1.2403030000    3.2471554700
C   -1.4217605400    0.0180445100    3.2471554700
C   -0.7265072800    1.2222584900    3.2471554700
C    0.6952532600   -1.2403030000    3.2471554700
C    0.7265070700   -3.0757880400    1.6054479300
C   -0.7265070700   -3.0757880400    1.6054479300
C   -1.4217616200   -2.1782193200    2.4082577200
C    1.4217616200   -2.1782193200    2.4082577200
C    3.0269642900   -1.7476186500    0.5908163400
C    2.3004591400   -2.6855341800   -0.2480819100
C    1.1755112500   -3.3350231500    0.2480819100
C    2.5972733200   -1.4995364500    1.8897904300
C    3.0269641200    0.9087204400    1.6054479300
C    3.4759704000    0.6494889700    0.2480819100
C    3.4759704000   -0.6494889700   -0.2480819100
C    2.5972740700   -0.1421720200    2.4082577200
C   -4.4349896800    4.8481839600   -0.0032633400
C   -5.4308927800    3.8428578400   -0.0036614700
C   -3.8519345900    5.2807438000   -1.2189935700
C   -3.8517196600    5.2795098600    1.2128041200
C   -2.6463298300    5.9754420000   -1.2128041200
C   -2.6472909900    5.9762451100    1.2189935700
C   -1.9811556300    6.2649057100    0.0032633400
C   -6.0434589000    2.7818621900   -0.0036614700
H   -4.3174284800    4.9925532700   -2.1617458600
H   -4.3170133800    4.9903257500    2.1553492800
H   -2.1632421900    6.2338061300   -2.1553492800
H   -2.1649637200    6.2352793800    2.1617458600
C    1.9811556300    6.2649057100    0.0032633400
C    0.6125661200    6.6247200300    0.0036614700
C    2.6463298300    5.9754420000   -1.2128041200
C    2.6472909900    5.9762451100    1.2189935700
C    3.8519345900    5.2807438000   -1.2189935700
C    3.8517196600    5.2795098600    1.2128041200
C    4.4349896800    4.8481839600   -0.0032633400
C   -0.6125661200    6.6247200300    0.0036614700
H    2.1632421900    6.2338061300   -2.1553492800
H    2.1649637200    6.2352793800    2.1617458600
H    4.3174284800    4.9925532700   -2.1617458600
H    4.3170133800    4.9903257500    2.1553492800
C    6.4161453100    1.4167217500   -0.0032633400
C    6.0434589000    2.7818621900   -0.0036614700
C    6.4992255800    0.6955013100   -1.2189935700
C    6.4980494900    0.6959321400    1.2128041200
C    6.4980494900   -0.6959321400   -1.2128041200
C    6.4992255800   -0.6955013100    1.2189935700
C    6.4161453100   -1.4167217500    0.0032633400
C    5.4308927800    3.8428578400   -0.0036614700
H    6.4823922000    1.2427261100   -2.1617458600
H    6.4802555700    1.2434803800    2.1553492800
H    6.4802555700   -1.2434803800   -2.1553492800
H    6.4823922000   -1.2427261100    2.1617458600
C    4.4349896800   -4.8481839600    0.0032633400
C    5.4308927800   -3.8428578400    0.0036614700
C    3.8517196600   -5.2795098600   -1.2128041200
C    3.8519345900   -5.2807438000    1.2189935700
C    2.6472909900   -5.9762451100   -1.2189935700
C    2.6463298300   -5.9754420000    1.2128041200
C    1.9811556300   -6.2649057100   -0.0032633400
C    6.0434589000   -2.7818621900    0.0036614700
H    4.3170133800   -4.9903257500   -2.1553492800
H    4.3174284800   -4.9925532700    2.1617458600
H    2.1649637200   -6.2352793800   -2.1617458600
H    2.1632421900   -6.2338061300    2.1553492800
C   -1.9811556300   -6.2649057100   -0.0032633400
C   -0.6125661200   -6.6247200300   -0.0036614700
C   -2.6472909900   -5.9762451100   -1.2189935700
C   -2.6463298300   -5.9754420000    1.2128041200
C   -3.8517196600   -5.2795098600   -1.2128041200
C   -3.8519345900   -5.2807438000    1.2189935700
C   -4.4349896800   -4.8481839600    0.0032633400
C    0.6125661200   -6.6247200300   -0.0036614700
H   -2.1649637200   -6.2352793800   -2.1617458600
H   -2.1632421900   -6.2338061300    2.1553492800
H   -4.3170133800   -4.9903257500   -2.1553492800
H   -4.3174284800   -4.9925532700    2.1617458600
C   -6.4161453100   -1.4167217500    0.0032633400
C   -6.0434589000   -2.7818621900    0.0036614700
C   -6.4980494900   -0.6959321400   -1.2128041200
C   -6.4992255800   -0.6955013100    1.2189935700
C   -6.4992255800    0.6955013100   -1.2189935700
C   -6.4980494900    0.6959321400    1.2128041200
C   -6.4161453100    1.4167217500   -0.0032633400
C   -5.4308927800   -3.8428578400    0.0036614700
H   -6.4802555700   -1.2434803800   -2.1553492800
H   -6.4823922000   -1.2427261100    2.1617458600
H   -6.4823922000    1.2427261100   -2.1617458600
H   -6.4802555700    1.2434803800    2.1553492800
