58

C   -1.5982280000   -2.9490360000    3.2500000000
C   -4.0005400000   -2.9065270000    3.2500000000
C   -4.0107280000   -1.5698660000    3.2500000000
C   -2.7192980000   -0.9187180000    3.2500000000
N   -2.8308990000   -3.5868360000    3.2500000000
N   -1.5949260000   -1.5998660000    3.2500000000
N   -2.6531990000    0.4024280000    3.2500000000
O   -0.5980710000   -3.6295230000    3.2500000000
H   -2.8066410000   -4.5810390000    3.2500000000
H   -4.8972920000   -3.4971900000    3.2500000000
H   -4.9235800000   -1.0089750000    3.2500000000
H   -3.4794940000    0.9500750000    3.2500000000
H   -1.7581040000    0.8646590000    3.2500000000
C    1.0692420000    1.1086750000    3.2500000000
C    2.2854260000   -1.0221180000    3.2500000000
C    3.4550460000    0.8444100000    3.2500000000
C    2.3724120000    1.6891490000    3.2500000000
C    4.0586690000    2.9492050000    3.2500000000
N    1.1423840000   -0.2839060000    3.2500000000
N    3.4793830000   -0.5000700000    3.2500000000
N    2.7838090000    3.0076580000    3.2500000000
N    4.5367780000    1.6576590000    3.2500000000
N    2.1345620000   -2.3493720000    3.2500000000
O   -0.0130090000    1.6513790000    3.2500000000
H    0.2550220000   -0.7614500000    3.2500000000
H    4.7229940000    3.7894010000    3.2500000000
H    5.4838790000    1.3605800000    3.2500000000
H    2.9609760000   -2.8966530000    3.2500000000
H    1.2381640000   -2.7944260000    3.2500000000
C   -1.5166980000    0.2684520000    0.0000000000
C   -1.2481620000   -2.1702510000    0.0000000000
C   -3.2915230000   -1.3476830000    0.0000000000
C   -2.9121790000   -0.0279190000    0.0000000000
C   -5.0170310000    0.0003310000    0.0000000000
N   -0.7573320000   -0.9011610000    0.0000000000
N   -2.5209460000   -2.4496950000    0.0000000000
N   -4.0200060000    0.7969640000    0.0000000000
N   -4.6446780000   -1.3255770000    0.0000000000
N   -0.3459700000   -3.1553460000    0.0000000000
O   -0.9601320000    1.3436400000    0.0000000000
H    0.2412520000   -0.7659240000    0.0000000000
H   -6.0483360000    0.2895830000    0.0000000000
H   -5.2362800000   -2.1226110000    0.0000000000
H   -0.6928700000   -4.0838600000    0.0000000000
H    0.6408270000   -2.9885130000    0.0000000000
C    3.0263940000   -1.4464050000    0.0000000000
C    4.9449180000    0.0000290000    0.0000000000
C    4.1674910000    1.0873990000    0.0000000000
C    2.7399670000    0.8551050000    0.0000000000
N    4.3985350000   -1.2378500000    0.0000000000
N    2.2307000000   -0.3568440000    0.0000000000
N    1.9099420000    1.8850830000    0.0000000000
O    2.6172300000   -2.5848080000    0.0000000000
H    4.9632880000   -2.0564360000    0.0000000000
H    6.0175890000    0.0492700000    0.0000000000
H    4.5763200000    2.0777300000    0.0000000000
H    2.2565290000    2.8138220000    0.0000000000
H    0.9141020000    1.7329110000    0.0000000000
