23

N          1.2107553350    0.0286757780    0.3297111130
C          0.6119349700   -1.1584490110    0.1534517640
H          1.2514779050   -2.0295234040    0.2192929470
C         -0.7513139900   -1.3086495590   -0.0888340710
H         -1.1704157740   -2.2968693180   -0.2133832040
C         -1.5478676700   -0.1699402680   -0.1564669120
H         -2.6110127470   -0.2459546940   -0.3387557440
C         -0.9436223740    1.0706361170    0.0198230980
H         -1.5188143050    1.9845002850   -0.0116440280
C          0.4277185700    1.1161086290    0.2573487920
H          0.9246945130    2.0680517340    0.3975479850
GHOST-N   -0.7131675830   -0.2839493170    3.2975233210
GHOST-H   -1.6080566020   -0.7158128080    3.1129198330
GHOST-C   -0.7129126970    1.1138604750    3.3905343220
GHOST-O   -1.7527957740    1.7420602780    3.2756841920
GHOST-C    0.6065820560    1.6729418200    3.6180973890
GHOST-H    0.7078984220    2.7401639900    3.7139655700
GHOST-C    1.6764556470    0.8542495180    3.6896174420
GHOST-H    2.6803346870    1.2229142160    3.8380439750
GHOST-N    1.5583945060   -0.5030437460    3.5770627780
GHOST-H    2.3718305000   -1.0952310960    3.5688951390
GHOST-C    0.3579475690   -1.1502761740    3.3506810810
GHOST-O    0.2658103220   -2.3556942500    3.2171018020
