20

Al            0.0000000000        0.0000000000        1.0000000000    0   0   0
O             0.7365059076        1.5031742779        1.8478196113    0   0   0
O             0.7365073214        4.0545077819        1.8478196113    0   0   0
O            -1.4730131660        2.7788423786        1.8478196113    0   0   0
Al            2.4065473854        1.3894207811        2.6956392070    0   0   0
Al            0.0000000000        2.7788415624        3.1888694416    0   0   0
O             3.8888947799        1.3950662562        4.0429308992
O             1.6604844924        2.6703486680        4.0429308992
O             1.6702626389        0.1028473491        4.0429308992
Al           -0.0000000000       -0.0000000000        4.8839879840
Al            2.4065473854        1.3894207811        5.3395101303
O            -1.6577325497        2.8651766549        6.2296596155
O             0.7540977479        1.3000352668        6.2296596155
O             3.3101820440        0.0030501734        6.2296596155
Al            0.0000000000        2.7788415624        7.2481576242
Al            0.0000000000       -0.0000000000        7.5116438581
O             1.5204529655        2.8455222423        8.4007541019
O            -0.8179735744        4.0622519921        8.4007541019
O            -0.7024793290        1.4287502043        8.4007541019
Al            2.4065473854        1.3894207811        8.4931254048
