32

C          0.7999140790   -1.0220516430    0.6877369560
H          0.8535558760   -1.1220510120   -0.3980143550
H          1.4914020980   -1.7441693580    1.1197204030
C          1.1168870030    0.4249527880    1.0996620540
H          1.8381423040    0.8901450420    0.4304525630
H          1.5555695860    0.4398246380    2.0970835550
C         -0.2445591550    1.1656895900    1.1029771400
H         -0.2580776020    2.0008631350    0.4053233320
H         -0.4488044990    1.5769958190    2.0909844690
C         -1.2987141780    0.1038119070    0.7393089940
H         -1.4735607790    0.1052433770   -0.3380054510
H         -2.2567342780    0.2780411780    1.2271584270
C         -0.6468799330   -1.2200683590    1.1363066000
H         -1.1244391840   -2.0876270240    0.6829932670
H         -0.6860186450   -1.3452833150    2.2202200650
GHOST-C    0.0498461470    0.0942076030    5.6162773450
GHOST-C   -0.0464980500   -0.0578783730    7.1319178240
GHOST-H    0.9460483180   -0.0733445770    7.5842750450
GHOST-H   -0.6054228180    0.7700061280    7.5703527360
GHOST-H   -0.5536627480   -0.9865444520    7.3972674140
GHOST-C    0.7638993900    1.4011127170    5.2806524650
GHOST-H    0.8454189360    1.5346118490    4.2009705910
GHOST-H    0.2204270030    2.2558011520    5.6861538490
GHOST-H    1.7715039330    1.4117631320    5.6988854660
GHOST-C   -1.3551656660    0.1140322510    5.0189578220
GHOST-H   -1.3182340780    0.2312221860    3.9351088560
GHOST-H   -1.9374651980    0.9414558090    5.4273037420
GHOST-H   -1.8850687260   -0.8137545930    5.2402871150
GHOST-C    0.8377459610   -1.0792773010    5.0389391720
GHOST-H    0.3425256450   -2.0262680380    5.2591823200
GHOST-H    0.9325891340   -0.9920945370    3.9558043950
GHOST-H    1.8424640450   -1.1166819390    5.4626876280
