129

O    0.0000000000    2.9706828594    1.0000000000
O    0.0000000000    0.0000000000    1.0000000000
O    0.0000000000    5.9413657188    1.0000000000
O    4.5695614290    7.4267070598    2.2820344950
O    4.5695614290    4.4560242004    2.2820344950
O    2.0054930210    1.4853413410    2.2820344950
O    2.0054930210    7.4267070598    2.2820344950
O    2.0054930210    4.4560242004    2.2820344950
O    4.5695614290    1.4853413410    2.2820344950
Ti    3.2875273230    2.9706828594    2.2820344950
Ti    0.0000000000    7.4267070598    2.2820344950
Ti    3.2875273230    5.9413657188    2.2820344950
Ti    3.2875273230    0.0000000000    2.2820344950
Ti    0.0000000000    4.4560242004    2.2820344950
Ti    0.0000000000    1.4853413410    2.2820344950
O    0.0000000000    0.0000000000    3.5640695310
O    0.0000000000    5.9413657188    3.5640695310
O    0.0000000000    2.9706828594    3.5640695310
O    3.2875273230    5.9413657188    4.2875277010
O    3.2875273230    2.9706828594    4.2875277010
O    3.2875273230    0.0000000000    4.2875277010
O    1.2820342040    1.4853413410    5.5695616550
O    1.2820342040    4.4560242004    5.5695616550
O    5.2930205400    4.4560242004    5.5695616550
O    5.2930205400    7.4267070598    5.5695616550
O    1.2820342040    7.4267070598    5.5695616550
O    5.2930205400    1.4853413410    5.5695616550
Ti    3.2875273230    7.4267070598    5.5695616550
Ti    0.0000000000    0.0000000000    5.5695616550
Ti    0.0000000000    5.9413657188    5.5695616550
Ti    3.2875273230    4.4560242004    5.5695616550
Ti    0.0000000000    2.9706828594    5.5695616550
Ti    3.2875273230    1.4853413410    5.5695616550
O    3.2875273230    5.9413657188    6.8515972320
O    3.2875273230    2.9706828594    6.8515972320
O    3.2875273230    0.0000000000    6.8515972320
O    0.0000000000    2.9706828594    7.5750554020
O    0.0000000000    5.9413657188    7.5750554020
O    0.0000000000    0.0000000000    7.5750554020
O    4.5695614290    4.4560242004    8.8570909790
O    4.5695614290    7.4267070598    8.8570909790
O    2.0054930210    7.4267070598    8.8570909790
O    2.0054930210    1.4853413410    8.8570909790
O    2.0054930210    4.4560242004    8.8570909790
O    4.5695614290    1.4853413410    8.8570909790
Ti    3.2875273230    2.9706828594    8.8570909790
Ti    0.0000000000    4.4560242004    8.8570909790
Ti    0.0000000000    7.4267070598    8.8570909790
Ti    3.2875273230    5.9413657188    8.8570909790
Ti    3.2875273230    0.0000000000    8.8570909790
Ti    0.0000000000    1.4853413410    8.8570909790
O    0.0000000000    5.9413657188   10.1391254740
O    0.0000000000    0.0000000000   10.1391254740
O    0.0000000000    2.9706828594   10.1391254740
O    3.2857144070    0.0013809857   10.8544644746
O    3.2853566460    5.9420220849   10.8557129386
O    3.2851250484    2.9723525806   10.8559694405
Ti    3.2109921310    1.5409300741   12.1176483824
Ti    3.2078378554    4.5062625832   12.1136760526
Ti    3.2144498212    7.4809359472   12.1056468756
O    1.2943407445    1.4661441895   12.1356425335
O    5.2832531507    7.4229981633   12.1371171158
O    1.2939430944    7.4091995516   12.1366443677
O    5.2829267963    4.4520034338   12.1369227690
O    5.2838969351    1.4810349663   12.1356361326
O    1.2930617404    4.4375771377   12.1363216465
Ti   -0.0535582959    6.0110858443   12.1736289053
Ti   -0.0596213792    3.0398588689   12.1635828126
Ti   -0.0517916227    0.0684745345   12.1694019890
O    3.2842855823    5.9390824671   13.4158310478
O    3.2860081320   -0.0035330755   13.4137900137
O    3.2843540888    2.9674917171   13.4156831859
O   -0.0031797961    2.9476602301   14.1266276567
O   -0.0038947883    5.9209823890   14.1286174170
O   -0.0039629294   -0.0184110681   14.1309823502
Ti    3.2871589073    6.0463747697   15.3440458516
Ti    3.2895747298    3.0824830306   15.3618600896
Ti    3.2913016250    0.1015107947   15.3486245581
O    4.5659328177    4.4555699901   15.4232074797
O    2.0048268556    7.4181126031   15.4293201217
O    4.5660335480    7.4191825651   15.4242127640
O    2.0051537595    1.4776063989   15.4343860261
O    4.5665098191    1.4799296057   15.4300263372
O    2.0053616778    4.4539870269   15.4297883378
Ti    0.0054319293    1.6121772062   15.4662692700
Ti    0.0015374224    4.5859604864   15.4892531737
Ti    0.0024427204    7.5482997807   15.4852866809
O   -0.0060632821    5.9526479548   16.7176001781
O   -0.0067230746    0.0062691037   16.7215161025
O   -0.0085568583    2.9817167051   16.7167450208
O    3.2979782286    2.9995539082   17.4247138117
O    3.2994558332    5.9413657532   17.4549935833
O    3.2983978634   -0.0218203923   17.4249971313
Ti    3.3800810939    4.5180576207   18.6994793871
Ti    3.3791992646    1.4960658110   18.5128945986
Ti    3.3975605522    7.3922050522   18.6805985165
O    5.2782571251    7.4345836212   18.7620878489
O    1.2853511158    4.4508769433   18.7274286044
O    5.2762438385    4.4520625190   18.7634241231
O    1.2849067431    7.4350011309   18.7209378386
O    1.2829981972    1.4910429491   18.6994915812
O    5.2700671392    1.4837684124   18.7378361967
Ti    0.0822260046    0.0126042731   18.8389444563
Ti    0.0593056137    2.9795912620   18.8419227459
Ti    0.0854641285    5.9505822461   18.8963992042
O    3.2281159668    0.0224386420   19.9768261127
O    3.2377736320    2.9401113780   19.9773961693
O    3.2747522874    5.9456728207   20.0348709594
O    0.0436061999    2.9616305535   20.7391470243
O    0.0644947844    0.0045351877   20.7436007565
O    0.0822988621    5.9507103589   20.7428035080
Ti    3.2884134256    0.0024955156   21.7680723421
Ti    3.3036896078    2.9543284585   21.7708843654
Ti    3.2489716881    5.9235525674   22.0763307867
O    4.5176513141    1.4751354497   22.1064103981
O    2.0366946733    4.4554554372   22.1849525595
O    4.5569415749    4.3732013684   21.9683812720
O    4.5667671082    7.5183961522   21.9761650571
O    2.0602252509    7.4026182195   22.2465663826
O    2.0419202344    1.4826388439   22.1889940175
Ti   -0.0234160515    4.3849445088   22.1533967964
Ti   -0.0486079943    7.4761566303   22.1517660041
Ti    0.0498712445    1.4725046827   22.2194781816
O   -0.0268945876    2.9770204307   23.2931087758
O   -0.2769590237    5.9324454755   23.3221993162
O   -0.0255664545   -0.0167885065   23.2984791854
H    5.2068157781    5.9007614155   23.7804777114
O    3.9394514121    5.8407054554   23.9715769711
H    3.6497361296    6.5208181387   24.6034454564
