24

N         -0.7299991340    0.0227676260    0.0009146480
H          0.2984225550    0.0740044650    0.0016230380
C         -1.2968245280   -1.2404268200    0.0015023360
O         -0.5940988570   -2.2535175080    0.0026337050
C         -2.7436222910   -1.2623317010    0.0004793780
H         -3.2495904540   -2.2118351690    0.0008331060
C         -3.4220199740   -0.0959092070   -0.0009225900
H         -4.5008970910   -0.0492160270   -0.0017454630
N         -2.7748368440    1.1054089470   -0.0014180750
H         -3.2838380680    1.9738773910   -0.0024857430
C         -1.3914786640    1.2370197790   -0.0005253820
O         -0.8398437130    2.3170352800   -0.0010012510
GHOST-N    4.1438294630   -1.0857038190    0.0004992760
GHOST-H    4.5910732460   -0.1791306190    0.0008860920
GHOST-C    4.9998772330   -2.2003216090   -0.0010006010
GHOST-O    6.2093292560   -2.0486171940   -0.0017498000
GHOST-C    4.2856588030   -3.4624951470   -0.0015049950
GHOST-H    4.8522433520   -4.3775258970   -0.0026436300
GHOST-C    2.9354898270   -3.4663130190   -0.0005448990
GHOST-H    2.3585265900   -4.3792777850   -0.0008635760
GHOST-N    2.1974984170   -2.3154321800    0.0009055130
GHOST-H    1.1711621570   -2.3368749790    0.0015825820
GHOST-C    2.7702693550   -1.0707671390    0.0014561600
GHOST-O    2.1199484710   -0.0295488340    0.0026925530
