21

C          0.8555607410    0.3585324440    1.0497542620
H          1.5138255040    0.9026795570    1.7127658240
C          1.3428971290   -0.6753786640    0.2511573960
H          2.3928838410   -0.9333447200    0.2819630520
C          0.4778066110   -1.3767010960   -0.5878157660
H          0.8560839950   -2.1789075250   -1.2068242820
C         -0.8748298280   -1.0425561450   -0.6304517830
H         -1.5454057260   -1.5857001400   -1.2824161380
C         -1.3623972930   -0.0070139090    0.1658464460
H         -2.4115710210    0.2534672330    0.1307788510
C         -0.4984440410    0.6931569510    1.0069919860
H         -0.8661108980    1.4903398890    1.6380369620
GHOST-C    0.0819293720    0.4975307230    4.8047286140
GHOST-O    0.3284187210    1.5409569670    4.2174893310
GHOST-N   -0.2221178770   -0.6574758140    4.1535612690
GHOST-H   -0.1969175650   -0.6644911440    3.1469246620
GHOST-H   -0.3778943620   -1.5129681310    4.6492629800
GHOST-C    0.1047740720    0.4026388930    6.3131460860
GHOST-H    1.1364878730    0.4868511760    6.6482198800
GHOST-H   -0.3171298390   -0.5240041030    6.6941717580
GHOST-H   -0.4446905940    1.2464852030    6.7199165960
