20

C         -1.1136261150    1.3270200950    0.2751670550
O         -0.4670826410    2.3493877820    0.4615374620
O         -0.5780893880    0.1369204850    0.0496174730
H          0.4133203640    0.2032566050    0.0554871080
C         -2.6114246860    1.2861895730    0.2773613070
H         -3.0066487180    2.2768854470    0.4657898270
H         -2.9642562270    0.9152586790   -0.6820012320
H         -2.9531142110    0.5917982100    1.0412404120
GHOST-N    4.1886973820    1.0879533780    0.1828815740
GHOST-H    4.5819024950    0.1725631490    0.0111621470
GHOST-C    5.1102252890    2.1360689960    0.3643346840
GHOST-O    6.3073716740    1.9177731880    0.3114547210
GHOST-C    4.4711592180    3.4155313780    0.6049418350
GHOST-H    5.0906939820    4.2824562560    0.7564191090
GHOST-C    3.1240750160    3.4955215330    0.6343230710
GHOST-H    2.6012348250    4.4239685340    0.8096212800
GHOST-N    2.3203442650    2.4048395460    0.4439170400
GHOST-H    1.2962924350    2.4747872380    0.4677073010
GHOST-C    2.8202767510    1.1546167620    0.2097448170
GHOST-O    2.1082443050    0.1651118750    0.0362746370
