   73
gly10 
 H          0.0000000000        0.2467679592      -18.5934801389
 O          0.0000000000       -0.3783454005      -17.8763554884
 C          0.0000000000        0.2939428315      -16.7373801131
 O          0.0000000000        1.4793836013      -16.6798073790
 C          0.0000000000       -0.6282970388      -15.5497404083
 H         -0.8736447751       -1.2782329748      -15.6207876355
 H          0.8736447751       -1.2782329748      -15.6207876355
 N          0.0000000000        0.1436213012      -14.3399140083
 H          0.0000000000        1.1379450866      -14.4320238528
 C          0.0000000000       -0.4499620140      -13.1248515233
 O          0.0000000000       -1.6431811472      -12.9958052855
 C          0.0000000000        0.5025458673      -11.9354393696
 H          0.8769989824        1.1510331123      -12.0020699975
 H         -0.8769989824        1.1510331123      -12.0020699975
 N          0.0000000000       -0.2571912270      -10.7179265815
 H          0.0000000000       -1.2523893880      -10.8000523019
 C          0.0000000000        0.3485571101       -9.5088827664
 O          0.0000000000        1.5430113117       -9.3918187171
 C          0.0000000000       -0.5919653165       -8.3099707178
 H         -0.8769989824       -1.2410886347       -8.3700894774
 H          0.8769989824       -1.2410886347       -8.3700894774
 N          0.0000000000        0.1799530235       -7.1001443178
 H          0.0000000000        1.1742768089       -7.1922541623
 C          0.0000000000       -0.4136302917       -5.8850818328
 O          0.0000000000       -1.6068494249       -5.7560355950
 C          0.0000000000        0.5388775897       -4.6956696791
 H          0.8769989824        1.1873648346       -4.7623003070
 H         -0.8769989824        1.1873648346       -4.7623003070
 N          0.0000000000       -0.2208595047       -3.4781568910
 H          0.0000000000       -1.2160576656       -3.5602826114
 C          0.0000000000        0.3848888324       -2.2691130759
 O          0.0000000000        1.5793430340       -2.1520490266
 C          0.0000000000       -0.5556335942       -1.0702010273
 H         -0.8769989824       -1.2047569123       -1.1303197869
 H          0.8769989824       -1.2047569123       -1.1303197869
 N          0.0000000000        0.2162847459        0.1396253727
 H          0.0000000000        1.2106085312        0.0475155282
 C          0.0000000000       -0.3772985693        1.3546878577
 O          0.0000000000       -1.5705177025        1.4837340955
 C          0.0000000000        0.5752093120        2.5441000114
 H          0.8769989824        1.2236965569        2.4774693835
 H         -0.8769989824        1.2236965569        2.4774693835
 N          0.0000000000       -0.1845277823        3.7616127995
 H          0.0000000000       -1.1797259433        3.6794870791
 C          0.0000000000        0.4212205548        4.9706566146
 O          0.0000000000        1.6156747563        5.0877206639
 C          0.0000000000       -0.5193018719        6.1695686632
 H         -0.8769989824       -1.1684251900        6.1094499036
 H          0.8769989824       -1.1684251900        6.1094499036
 N          0.0000000000        0.2526164682        7.3793950632
 H          0.0000000000        1.2469402535        7.2872852187
 C          0.0000000000       -0.3409668470        8.5944575482
 O          0.0000000000       -1.5341859802        8.7235037860
 C          0.0000000000        0.6115410343        9.7838697019
 H          0.8769989824        1.2600282793        9.7172390740
 H         -0.8769989824        1.2600282793        9.7172390740
 N          0.0000000000       -0.1481960600       11.0013824900
 H          0.0000000000       -1.1433942210       10.9192567696
 C          0.0000000000        0.4575522771       12.2104263051
 O          0.0000000000        1.6520064787       12.3274903544
 C          0.0000000000       -0.4829701495       13.4093383537
 H         -0.8769989824       -1.1320934677       13.3492195941
 H          0.8769989824       -1.1320934677       13.3492195941
 N          0.0000000000        0.2889481905       14.6191647537
 H          0.0000000000        1.2832719759       14.5270549092
 C          0.0000000000       -0.3046351247       15.8342272387
 O          0.0000000000       -1.4978542579       15.9632734765
 C          0.0000000000        0.6478727566       17.0236393924
 H          0.8735158156        1.2995355763       16.9375741016
 H         -0.8735158156        1.2995355763       16.9375741016
 N          0.0000000000        0.0061956237       18.3121382608
 H         -0.7962843174       -0.6058925719       18.3758398364
 H          0.7962843174       -0.6058925719       18.3758398364
