  115
gly16 
 H          0.0000000000        0.2786450023      -29.4499382865
 O          0.0000000000       -0.3486230010      -28.7346975375
 C          0.0000000000        0.3202355765      -27.5937047348
 O          0.0000000000        1.5054977736      -27.5325658578
 C          0.0000000000       -0.6055731392      -26.4088449672
 H         -0.8736447751       -1.2552923881      -26.4818472078
 H          0.8736447751       -1.2552923881      -26.4818472078
 N          0.0000000000        0.1627019397      -25.1967017228
 H          0.0000000000        1.1572983380      -25.2858197232
 C          0.0000000000       -0.4345342098      -23.9834305345
 O          0.0000000000       -1.6281361791      -23.8579746855
 C          0.0000000000        0.5143910095      -22.7911581397
 H          0.8769989824        1.1630757782      -22.8558374894
 H         -0.8769989824        1.1630757782      -22.8558374894
 N          0.0000000000       -0.2490055389      -21.5759365336
 H          0.0000000000       -1.2439521204      -21.6610559402
 C          0.0000000000        0.3531026435      -20.3650757938
 O          0.0000000000        1.5471992519      -20.2444187538
 C          0.0000000000       -0.5910224586      -19.1689987366
 H         -0.8769989824       -1.2399619715      -19.2310701143
 H          0.8769989824       -1.2399619715      -19.2310701143
 N          0.0000000000        0.1772526204      -17.9568554922
 H          0.0000000000        1.1718490187      -18.0459734926
 C          0.0000000000       -0.4199835291      -16.7435843038
 O          0.0000000000       -1.6135854984      -16.6181284548
 C          0.0000000000        0.5289416902      -15.5513119090
 H          0.8769989824        1.1776264589      -15.6159912588
 H         -0.8769989824        1.1776264589      -15.6159912588
 N          0.0000000000       -0.2344548582      -14.3360903030
 H          0.0000000000       -1.2294014398      -14.4212097096
 C          0.0000000000        0.3676533242      -13.1252295632
 O          0.0000000000        1.5617499326      -13.0045725232
 C          0.0000000000       -0.5764717779      -11.9291525060
 H         -0.8769989824       -1.2254112909      -11.9912238837
 H          0.8769989824       -1.2254112909      -11.9912238837
 N          0.0000000000        0.1918033010      -10.7170092615
 H          0.0000000000        1.1863996994      -10.8061272620
 C          0.0000000000       -0.4054328484       -9.5037380732
 O          0.0000000000       -1.5990348178       -9.3782822242
 C          0.0000000000        0.5434923709       -8.3114656784
 H          0.8769989824        1.1921771396       -8.3761450282
 H         -0.8769989824        1.1921771396       -8.3761450282
 N          0.0000000000       -0.2199041775       -7.0962440724
 H          0.0000000000       -1.2148507591       -7.1813634789
 C          0.0000000000        0.3822040049       -5.8853833325
 O          0.0000000000        1.5763006132       -5.7647262926
 C          0.0000000000       -0.5619210972       -4.6893062753
 H         -0.8769989824       -1.2108606102       -4.7513776531
 H          0.8769989824       -1.2108606102       -4.7513776531
 N          0.0000000000        0.2063539817       -3.4771630309
 H          0.0000000000        1.2009503800       -3.5662810313
 C          0.0000000000       -0.3908821677       -2.2638918426
 O          0.0000000000       -1.5844841371       -2.1384359936
 C          0.0000000000        0.5580430516       -1.0716194478
 H          0.8769989824        1.2067278203       -1.1362987975
 H         -0.8769989824        1.2067278203       -1.1362987975
 N          0.0000000000       -0.2053534968        0.1436021583
 H          0.0000000000       -1.2003000784        0.0584827517
 C          0.0000000000        0.3967546856        1.3544628981
 O          0.0000000000        1.5908512939        1.4751199381
 C          0.0000000000       -0.5473704165        2.5505399553
 H         -0.8769989824       -1.1963099295        2.4884685776
 H          0.8769989824       -1.1963099295        2.4884685776
 N          0.0000000000        0.2209046624        3.7626831997
 H          0.0000000000        1.2155010607        3.6735651993
 C          0.0000000000       -0.3763314870        4.9759543881
 O          0.0000000000       -1.5699334564        5.1014102370
 C          0.0000000000        0.5725937323        6.1682267829
 H          0.8769989824        1.2212785009        6.1035474331
 H         -0.8769989824        1.2212785009        6.1035474331
 N          0.0000000000       -0.1908028161        7.3834483889
 H          0.0000000000       -1.1857493977        7.2983289823
 C          0.0000000000        0.4113053663        8.5943091287
 O          0.0000000000        1.6054019746        8.7149661687
 C          0.0000000000       -0.5328197358        9.7903861859
 H         -0.8769989824       -1.1817592488        9.7283148082
 H          0.8769989824       -1.1817592488        9.7283148082
 N          0.0000000000        0.2354553431       11.0025294304
 H          0.0000000000        1.2300517414       10.9134114299
 C          0.0000000000       -0.3617808063       12.2158006187
 O          0.0000000000       -1.5553827757       12.3412564677
 C          0.0000000000        0.5871444129       13.4080730135
 H          0.8769989824        1.2358291816       13.3433936637
 H         -0.8769989824        1.2358291816       13.3433936637
 N          0.0000000000       -0.1762521355       14.6232946195
 H          0.0000000000       -1.1711987170       14.5381752130
 C          0.0000000000        0.4258560469       15.8341553594
 O          0.0000000000        1.6199526553       15.9548123993
 C          0.0000000000       -0.5182690552       17.0302324166
 H         -0.8769989824       -1.1672085681       16.9681610388
 H          0.8769989824       -1.1672085681       16.9681610388
 N          0.0000000000        0.2500060238       18.2423756610
 H          0.0000000000        1.2446024221       18.1532576606
 C          0.0000000000       -0.3472301257       19.4556468493
 O          0.0000000000       -1.5408320950       19.5811026983
 C          0.0000000000        0.6016950936       20.6479192441
 H          0.8769989824        1.2503798623       20.5832398944
 H         -0.8769989824        1.2503798623       20.5832398944
 N          0.0000000000       -0.1617014548       21.8631408502
 H          0.0000000000       -1.1566480364       21.7780214436
 C          0.0000000000        0.4404067276       23.0740015900
 O          0.0000000000        1.6345033360       23.1946586300
 C          0.0000000000       -0.5037183745       24.2700786472
 H         -0.8769989824       -1.1526578874       24.2080072695
 H          0.8769989824       -1.1526578874       24.2080072695
 N          0.0000000000        0.2645567044       25.4822218916
 H          0.0000000000        1.2591531028       25.3931038912
 C          0.0000000000       -0.3326794450       26.6954930800
 O          0.0000000000       -1.5262814144       26.8209489289
 C          0.0000000000        0.6162457743       27.8877654748
 H          0.8735158156        1.2681645726       27.8036611038
 H         -0.8735158156        1.2681645726       27.8036611038
 N          0.0000000000       -0.0293049089       29.1743280237
 H         -0.7962843174       -0.6415819809       29.2361878412
 H          0.7962843174       -0.6415819809       29.2361878412
