   87
gly12
 H         -0.0000000000        0.2608416563      -22.2118995114
 O         -0.0000000000       -0.3653436177      -21.4957106540
 C         -0.0000000000        0.3052402807      -20.3557310016
 O         -0.0000000000        1.4905936120      -20.2963852513
 C         -0.0000000000       -0.6187749277      -19.1694720326
 H         -0.8736447751       -1.2686038704      -19.2414912987
 H          0.8736447751       -1.2686038704      -19.2414912987
 N         -0.0000000000        0.1513329943      -17.9584924166
 H         -0.0000000000        1.1457934374      -18.0491149338
 C         -0.0000000000       -0.4440670431      -16.7443191217
 O         -0.0000000000       -1.6374778579      -16.6170577432
 C         -0.0000000000        0.5066607520      -15.5534836189
 H          0.8769989824        1.1552469320      -15.6191442207
 H         -0.8769989824        1.1552469320      -15.6191442207
 N         -0.0000000000       -0.2548965437      -14.3371085422
 H         -0.0000000000       -1.2499707548      -14.4207227029
 C         -0.0000000000        0.3490427318      -13.1271600532
 O         -0.0000000000        1.5433205029      -13.0083095727
 C         -0.0000000000       -0.5932718726      -11.9296560985
 H         -0.8769989824       -1.2423045441      -11.9907456938
 H          0.8769989824       -1.2423045441      -11.9907456938
 N         -0.0000000000        0.1768360495      -10.7186764825
 H         -0.0000000000        1.1712964926      -10.8092989997
 C         -0.0000000000       -0.4185639880       -9.5045031876
 O         -0.0000000000       -1.6119748028       -9.3772418091
 C         -0.0000000000        0.5321638072       -8.3136676848
 H          0.8769989824        1.1807499871       -8.3793282866
 H         -0.8769989824        1.1807499871       -8.3793282866
 N         -0.0000000000       -0.2293934885       -7.0972926081
 H         -0.0000000000       -1.2244676997       -7.1809067688
 C         -0.0000000000        0.3745457870       -5.8873441191
 O         -0.0000000000        1.5688235581       -5.7684936386
 C         -0.0000000000       -0.5677688174       -4.6898401644
 H         -0.8769989824       -1.2168014890       -4.7509297597
 H          0.8769989824       -1.2168014890       -4.7509297597
 N         -0.0000000000        0.2023391046       -3.4788605484
 H          0.0000000000        1.1967995477       -3.5694830656
 C         -0.0000000000       -0.3930609328       -2.2646872535
 O         -0.0000000000       -1.5864717476       -2.1374258750
 C          0.0000000000        0.5576668623       -1.0738517507
 H          0.8769989824        1.2062530423       -1.1395123525
 H         -0.8769989824        1.2062530423       -1.1395123525
 N         -0.0000000000       -0.2038904334        0.1425233260
 H         -0.0000000000       -1.1989646445        0.0589091653
 C          0.0000000000        0.4000488421        1.3524718150
 O          0.0000000000        1.5943266132        1.4713222955
 C          0.0000000000       -0.5422657623        2.5499757697
 H         -0.8769989824       -1.1912984338        2.4888861744
 H          0.8769989824       -1.1912984338        2.4888861744
 N          0.0000000000        0.2278421598        3.7609553857
 H          0.0000000000        1.2223026029        3.6703328685
 C          0.0000000000       -0.3675578777        4.9751286806
 O         -0.0000000000       -1.5609686925        5.1023900591
 C          0.0000000000        0.5831699175        6.1659641834
 H          0.8769989824        1.2317560974        6.1003035816
 H         -0.8769989824        1.2317560974        6.1003035816
 N          0.0000000000       -0.1783873782        7.3823392601
 H          0.0000000000       -1.1734615894        7.2987250994
 C          0.0000000000        0.4255518973        8.5922877491
 O          0.0000000000        1.6198296684        8.7111382296
 C          0.0000000000       -0.5167627071        9.7897917038
 H         -0.8769989824       -1.1657953787        9.7287021085
 H          0.8769989824       -1.1657953787        9.7287021085
 N          0.0000000000        0.2533452149       11.0007713198
 H          0.0000000000        1.2478056580       10.9101488026
 C          0.0000000000       -0.3420548225       12.2149446147
 O          0.0000000000       -1.5354656373       12.3422059932
 C          0.0000000000        0.6086729726       13.4057801175
 H          0.8769989824        1.2572591526       13.3401195157
 H         -0.8769989824        1.2572591526       13.3401195157
 N          0.0000000000       -0.1528843231       14.6221551942
 H          0.0000000000       -1.1479585342       14.5385410336
 C          0.0000000000        0.4510549524       15.8321036832
 O          0.0000000000        1.6453327235       15.9509541637
 C          0.0000000000       -0.4912596520       17.0296076379
 H         -0.8769989824       -1.1402923235       16.9685180426
 H          0.8769989824       -1.1402923235       16.9685180426
 N          0.0000000000        0.2788482701       18.2405872539
 H          0.0000000000        1.2733087132       18.1499647367
 C          0.0000000000       -0.3165517674       19.4547605488
 O          0.0000000000       -1.5099625822       19.5820219273
 C          0.0000000000        0.6341760278       20.6455960516
 H          0.8735158156        1.2859668475       20.5605055584
 H         -0.8735158156        1.2859668475       20.5605055584
 N          0.0000000000       -0.0094276135       21.9331337131
 H         -0.7962843174       -0.6216104038       21.9959197084
 H          0.7962843174       -0.6216104038       21.9959197084
