  199
gly28 
 H         -0.0000000000        0.3019582345      -51.1673077861
 O         -0.0000000000       -0.3262680308      -50.4529085724
 C         -0.0000000000        0.3410603723      -49.3110201475
 O         -0.0000000000        1.5262395439      -49.2482924061
 C         -0.0000000000       -0.5863358913      -48.1274025500
 H         -0.8736447751       -1.2359566921      -48.2012757149
 H          0.8736447751       -1.2359566921      -48.2012757149
 N         -0.0000000000        0.1803135423      -46.9142304732
 H         -0.0000000000        1.1750285153      -47.0020150739
 C         -0.0000000000       -0.4185485376      -45.7017610080
 O         -0.0000000000       -1.6123176160      -45.5779053710
 C         -0.0000000000        0.5287775122      -44.5082175900
 H          0.8769989824        1.1775484048      -44.5720272786
 H         -0.8769989824        1.1775484048      -44.5720272786
 N         -0.0000000000       -0.2362474320      -43.2940204575
 H         -0.0000000000       -1.2310790116      -43.3804735767
 C         -0.0000000000        0.3642369736      -42.0823536414
 O         -0.0000000000        1.5581707606      -41.9600959475
 C         -0.0000000000       -0.5814906974      -40.8875433186
 H         -0.8769989824       -1.2303464166      -40.9504845852
 H          0.8769989824       -1.2303464166      -40.9504845852
 N         -0.0000000000        0.1851587362      -39.6743712418
 H         -0.0000000000        1.1798737091      -39.7621558425
 C         -0.0000000000       -0.4137033437      -38.4619017767
 O         -0.0000000000       -1.6074724221      -38.3380461397
 C         -0.0000000000        0.5336227060      -37.2683583587
 H          0.8769989824        1.1823935986      -37.3321680472
 H         -0.8769989824        1.1823935986      -37.3321680472
 N         -0.0000000000       -0.2314022381      -36.0541612262
 H         -0.0000000000       -1.2262338177      -36.1406143453
 C         -0.0000000000        0.3690821675      -34.8424944101
 O         -0.0000000000        1.5630159544      -34.7202367162
 C         -0.0000000000       -0.5766455035      -33.6476840873
 H         -0.8769989824       -1.2255012228      -33.7106253539
 H          0.8769989824       -1.2255012228      -33.7106253539
 N         -0.0000000000        0.1900039300      -32.4345120105
 H         -0.0000000000        1.1847189030      -32.5222966112
 C         -0.0000000000       -0.4088581498      -31.2220425454
 O         -0.0000000000       -1.6026272282      -31.0981869084
 C         -0.0000000000        0.5384678999      -30.0284991274
 H          0.8769989824        1.1872387925      -30.0923088159
 H         -0.8769989824        1.1872387925      -30.0923088159
 N         -0.0000000000       -0.2265570443      -28.8143019948
 H         -0.0000000000       -1.2213886239      -28.9007551140
 C         -0.0000000000        0.3739273614      -27.6026351787
 O         -0.0000000000        1.5678611483      -27.4803774849
 C         -0.0000000000       -0.5718003097      -26.4078248559
 H         -0.8769989824       -1.2206560289      -26.4707661225
 H          0.8769989824       -1.2206560289      -26.4707661225
 N         -0.0000000000        0.1948491239      -25.1946527792
 H         -0.0000000000        1.1895640969      -25.2824373799
 C         -0.0000000000       -0.4040129560      -23.9821833140
 O         -0.0000000000       -1.5977820343      -23.8583276770
 C         -0.0000000000        0.5433130938      -22.7886398960
 H          0.8769989824        1.1920839864      -22.8524495845
 H         -0.8769989824        1.1920839864      -22.8524495845
 N         -0.0000000000       -0.2217118504      -21.5744427635
 H         -0.0000000000       -1.2165434300      -21.6608958827
 C         -0.0000000000        0.3787725552      -20.3627759474
 O         -0.0000000000        1.5727063422      -20.2405182535
 C         -0.0000000000       -0.5669551158      -19.1679656246
 H         -0.8769989824       -1.2158108350      -19.2309068912
 H          0.8769989824       -1.2158108350      -19.2309068912
 N         -0.0000000000        0.1996943178      -17.9547935478
 H         -0.0000000000        1.1944092908      -18.0425781485
 C         -0.0000000000       -0.3991677621      -16.7423240827
 O         -0.0000000000       -1.5929368405      -16.6184684457
 C         -0.0000000000        0.5481582877      -15.5487806647
 H          0.8769989824        1.1969291803      -15.6125903532
 H         -0.8769989824        1.1969291803      -15.6125903532
 N         -0.0000000000       -0.2168666565      -14.3345835321
 H         -0.0000000000       -1.2116982361      -14.4210366513
 C         -0.0000000000        0.3836177491      -13.1229167161
 O         -0.0000000000        1.5775515361      -13.0006590222
 C         -0.0000000000       -0.5621099219      -11.9281063933
 H         -0.8769989824       -1.2109656411      -11.9910476599
 H          0.8769989824       -1.2109656411      -11.9910476599
 N         -0.0000000000        0.2045395117      -10.7149343165
 H         -0.0000000000        1.1992544846      -10.8027189172
 C         -0.0000000000       -0.3943225682       -9.5024648513
 O         -0.0000000000       -1.5880916466       -9.3786092143
 C         -0.0000000000        0.5530034815       -8.3089214333
 H          0.8769989824        1.2017743741       -8.3727311219
 H         -0.8769989824        1.2017743741       -8.3727311219
 N         -0.0000000000       -0.2120214627       -7.0947243008
 H         -0.0000000000       -1.2068530422       -7.1811774200
 C         -0.0000000000        0.3884629430       -5.8830574847
 O          0.0000000000        1.5823967299       -5.7607997908
 C         -0.0000000000       -0.5572647280       -4.6882471619
 H         -0.8769989824       -1.2061204473       -4.7511884285
 H          0.8769989824       -1.2061204473       -4.7511884285
 N         -0.0000000000        0.2093847055       -3.4750750851
 H          0.0000000000        1.2040996785       -3.5628596858
 C         -0.0000000000       -0.3894773743       -2.2626056200
 O         -0.0000000000       -1.5832464527       -2.1387499830
 C          0.0000000000        0.5578486754       -1.0690622020
 H          0.8769989824        1.2066195680       -1.1328718905
 H         -0.8769989824        1.2066195680       -1.1328718905
 N         -0.0000000000       -0.2071762688        0.1451349305
 H         -0.0000000000       -1.2020078484        0.0586818114
 C          0.0000000000        0.3933081369        1.3568017466
 O          0.0000000000        1.5872419238        1.4790594405
 C         -0.0000000000       -0.5524195342        2.5516120694
 H         -0.8769989824       -1.2012752534        2.4886708028
 H          0.8769989824       -1.2012752534        2.4886708028
 N          0.0000000000        0.2142298994        3.7647841462
 H          0.0000000000        1.2089448724        3.6769995455
 C          0.0000000000       -0.3846321805        4.9772536113
 O         -0.0000000000       -1.5784012588        5.1011092483
 C          0.0000000000        0.5626938693        6.1707970293
 H          0.8769989824        1.2114647619        6.1069873408
 H         -0.8769989824        1.2114647619        6.1069873408
 N          0.0000000000       -0.2023310749        7.3849941619
 H         -0.0000000000       -1.1971626545        7.2985410427
 C          0.0000000000        0.3981533307        8.5966609780
 O          0.0000000000        1.5920871177        8.7189186718
 C          0.0000000000       -0.5475743403        9.7914713007
 H         -0.8769989824       -1.1964300595        9.7285300342
 H          0.8769989824       -1.1964300595        9.7285300342
 N          0.0000000000        0.2190750933       11.0046433775
 H          0.0000000000        1.2137900662       10.9168587768
 C          0.0000000000       -0.3797869866       12.2171128427
 O         -0.0000000000       -1.5735560650       12.3409684797
 C          0.0000000000        0.5675390632       13.4106562607
 H          0.8769989824        1.2163099557       13.3468465722
 H         -0.8769989824        1.2163099557       13.3468465722
 N          0.0000000000       -0.1974858810       14.6248533932
 H         -0.0000000000       -1.1923174606       14.5384002740
 C          0.0000000000        0.4029985246       15.8365202093
 O          0.0000000000        1.5969323116       15.9587779032
 C          0.0000000000       -0.5427291464       17.0313305321
 H         -0.8769989824       -1.1915848656       16.9683892655
 H          0.8769989824       -1.1915848656       16.9683892655
 N          0.0000000000        0.2239202872       18.2445026089
 H          0.0000000000        1.2186352601       18.1567180082
 C          0.0000000000       -0.3749417927       19.4569720740
 O         -0.0000000000       -1.5687108711       19.5808277110
 C          0.0000000000        0.5723842570       20.6505154920
 H          0.8769989824        1.2211551496       20.5867058035
 H         -0.8769989824        1.2211551496       20.5867058035
 N          0.0000000000       -0.1926406872       21.8647126246
 H          0.0000000000       -1.1874722667       21.7782595054
 C          0.0000000000        0.4078437185       23.0763794406
 O          0.0000000000        1.6017775054       23.1986371345
 C          0.0000000000       -0.5378839525       24.2711897634
 H         -0.8769989824       -1.1867396718       24.2082484968
 H          0.8769989824       -1.1867396718       24.2082484968
 N          0.0000000000        0.2287654810       25.4843618402
 H          0.0000000000        1.2234804540       25.3965772395
 C          0.0000000000       -0.3700965988       26.6968313054
 O          0.0000000000       -1.5638656772       26.8206869424
 C          0.0000000000        0.5772294509       27.8903747234
 H          0.8769989824        1.2260003435       27.8265650348
 H         -0.8769989824        1.2260003435       27.8265650348
 N          0.0000000000       -0.1877954933       29.1045718559
 H          0.0000000000       -1.1826270729       29.0181187367
 C          0.0000000000        0.4126889124       30.3162386720
 O          0.0000000000        1.6066226993       30.4384963658
 C          0.0000000000       -0.5330387587       31.5110489948
 H         -0.8769989824       -1.1818944779       31.4481077282
 H          0.8769989824       -1.1818944779       31.4481077282
 N          0.0000000000        0.2336106749       32.7242210715
 H          0.0000000000        1.2283256479       32.6364364709
 C          0.0000000000       -0.3652514050       33.9366905367
 O          0.0000000000       -1.5590204833       34.0605461737
 C          0.0000000000        0.5820746448       35.1302339547
 H          0.8769989824        1.2308455374       35.0664242662
 H         -0.8769989824        1.2308455374       35.0664242662
 N          0.0000000000       -0.1829502994       36.3444310872
 H          0.0000000000       -1.1777818790       36.2579779681
 C          0.0000000000        0.4175341062       37.5560979033
 O          0.0000000000        1.6114678932       37.6783555972
 C          0.0000000000       -0.5281935648       38.7509082261
 H         -0.8769989824       -1.1770492840       38.6879669595
 H          0.8769989824       -1.1770492840       38.6879669595
 N          0.0000000000        0.2384558688       39.9640803029
 H          0.0000000000        1.2331708417       39.8762957022
 C          0.0000000000       -0.3604062111       41.1765497680
 O          0.0000000000       -1.5541752895       41.3004054050
 C          0.0000000000        0.5869198387       42.3700931860
 H          0.8769989824        1.2356907312       42.3062834975
 H         -0.8769989824        1.2356907312       42.3062834975
 N          0.0000000000       -0.1781051055       43.5842903186
 H          0.0000000000       -1.1729366851       43.4978371994
 C          0.0000000000        0.4223793001       44.7959571346
 O          0.0000000000        1.6163130871       44.9182148285
 C          0.0000000000       -0.5233483709       45.9907674574
 H         -0.8769989824       -1.1722040901       45.9278261908
 H          0.8769989824       -1.1722040901       45.9278261908
 N          0.0000000000        0.2433010627       47.2039395342
 H          0.0000000000        1.2380160356       47.1161549335
 C          0.0000000000       -0.3555610172       48.4164089994
 O          0.0000000000       -1.5493300956       48.5402646364
 C          0.0000000000        0.5917650325       49.6099524174
 H          0.8735158156        1.2437959923       49.5267220605
 H         -0.8735158156        1.2437959923       49.5267220605
 N          0.0000000000       -0.0555097894       50.8956484086
 H         -0.7962843174       -0.6678692383       50.9566873741
 H          0.7962843174       -0.6678692383       50.9566873741
