   45
gly6 
 H          0.0000000000        0.1914958093      -11.3600110364
 O          0.0000000000       -0.4275702655      -10.6376595486
 C          0.0000000000        0.2542638115       -9.5043728840
 O          0.0000000000        1.4401464603       -9.4567621548
 C          0.0000000000       -0.6579650588       -8.3090265179
 H         -0.8736447751       -1.3084749870       -8.3746105307
 H          0.8736447751       -1.3084749870       -8.3746105307
 N          0.0000000000        0.1240908938       -7.1057284131
 H          0.0000000000        1.1176056837       -7.2061892306
 C          0.0000000000       -0.4592626179       -5.8857215792
 O          0.0000000000       -1.6513553989       -5.7466545704
 C          0.0000000000        0.5032049830       -4.7043542983
 H          0.8769989824        1.1511095136       -4.7764311091
 H         -0.8769989824        1.1511095136       -4.7764311091
 N          0.0000000000       -0.2462758560       -3.4805012377
 H          0.0000000000       -1.2421289030       -3.5542624888
 C          0.0000000000        0.3696093838       -2.2765895440
 O          0.0000000000        1.5650049873       -2.1695653296
 C          0.0000000000       -0.5608066882       -1.0698176235
 H         -0.8769989824       -1.2104122071       -1.1244803820
 H          0.8769989824       -1.2104122071       -1.1244803820
 N          0.0000000000        0.2212492645        0.1334804812
 H          0.0000000000        1.2147640543        0.0330196638
 C          0.0000000000       -0.3621042473        1.3534873152
 O          0.0000000000       -1.5541970282        1.4925543240
 C          0.0000000000        0.6003633537        2.5348545961
 H          0.8769989824        1.2482678842        2.4627777853
 H         -0.8769989824        1.2482678842        2.4627777853
 N          0.0000000000       -0.1491174853        3.7587076567
 H          0.0000000000       -1.1449705324        3.6849464055
 C          0.0000000000        0.4667677544        4.9626193503
 O          0.0000000000        1.6621633579        5.0696435648
 C          0.0000000000       -0.4636483175        6.1693912709
 H         -0.8769989824       -1.1132538365        6.1147285123
 H          0.8769989824       -1.1132538365        6.1147285123
 N          0.0000000000        0.3184076351        7.3726893756
 H          0.0000000000        1.3119224250        7.2722285582
 C          0.0000000000       -0.2649458766        8.5926962096
 O          0.0000000000       -1.4570386576        8.7317632183
 C          0.0000000000        0.6975217243        9.7740634905
 H          0.8735158156        1.3484384291        9.6825260218
 H         -0.8735158156        1.3484384291        9.6825260218
 N          0.0000000000        0.0666930986       11.0679081960
 H         -0.7962843174       -0.5448382771       11.1367502363
 H          0.7962843174       -0.5448382771       11.1367502363
