   59
gly8 
 H          0.0000000000        0.2258827296      -14.9758904431
 O          0.0000000000       -0.3972885909      -14.2570775452
 C          0.0000000000        0.2780779995      -13.1199248108
 O          0.0000000000        1.4636701612      -13.0655587894
 C          0.0000000000       -0.6409460472      -11.9297948815
 H         -0.8736447751       -1.2910717814      -11.9990838353
 H          0.8736447751       -1.2910717814      -11.9990838353
 N          0.0000000000        0.1342419318      -10.7220608714
 H          0.0000000000        1.1283129315      -10.8168599282
 C          0.0000000000       -0.4560525860       -9.5053972462
 O          0.0000000000       -1.6489182966       -9.3731239388
 C          0.0000000000        0.4996690550       -8.3185658850
 H          0.8769989824        1.1479736983       -8.3869503641
 H         -0.8769989824        1.1479736983       -8.3869503641
 N          0.0000000000       -0.2567720063       -7.0990025358
 H          0.0000000000       -1.2521886686       -7.1784360415
 C          0.0000000000        0.3522444608       -5.8916016341
 O          0.0000000000        1.5470109397       -5.7777688956
 C          0.0000000000       -0.5850315846       -4.6901499497
 H         -0.8769989824       -1.2343151435       -4.7485126739
 H          0.8769989824       -1.2343151435       -4.7485126739
 N          0.0000000000        0.1901563944       -3.4824159396
 H          0.0000000000        1.1842273941       -3.5772149964
 C          0.0000000000       -0.4001381234       -2.2657523145
 O          0.0000000000       -1.5930038340       -2.1334790071
 C          0.0000000000        0.5555835177       -1.0789209532
 H          0.8769989824        1.2038881609       -1.1473054323
 H         -0.8769989824        1.2038881609       -1.1473054323
 N          0.0000000000       -0.2008575436        0.1406423960
 H          0.0000000000       -1.1962742060        0.0612088903
 C          0.0000000000        0.4081589235        1.3480432977
 O          0.0000000000        1.6029254023        1.4618760362
 C          0.0000000000       -0.5291171219        2.5494949820
 H         -0.8769989824       -1.1784006808        2.4911322578
 H          0.8769989824       -1.1784006808        2.4911322578
 N          0.0000000000        0.2460708570        3.7572289921
 H          0.0000000000        1.2401418567        3.6624299354
 C          0.0000000000       -0.3442236608        4.9738926173
 O          0.0000000000       -1.5370893714        5.1061659247
 C          0.0000000000        0.6114979803        6.1607239786
 H          0.8769989824        1.2598026235        6.0923394995
 H         -0.8769989824        1.2598026235        6.0923394995
 N          0.0000000000       -0.1449430810        7.3802873278
 H          0.0000000000       -1.1403597434        7.3008538220
 C          0.0000000000        0.4640733861        8.5876882294
 O          0.0000000000        1.6588398649        8.7015209680
 C          0.0000000000       -0.4732026593        9.7891399138
 H         -0.8769989824       -1.1224862182        9.7307771896
 H          0.8769989824       -1.1224862182        9.7307771896
 N          0.0000000000        0.3019853196       10.9968739239
 H          0.0000000000        1.2960563193       10.9020748672
 C          0.0000000000       -0.2883091982       12.2135375491
 O          0.0000000000       -1.4811749087       12.3458108565
 C          0.0000000000        0.6674124429       13.4003689104
 H          0.8735158156        1.3188400803       13.3125412499
 H         -0.8735158156        1.3188400803       13.3125412499
 N          0.0000000000        0.0292229216       14.6905987394
 H         -0.7962843174       -0.5826907283       14.7559557211
 H          0.7962843174       -0.5826907283       14.7559557211
