14

O         -0.5528310240   -0.1016974900   -0.0004987880
H         -0.8717596330    0.8017921980    0.0001444000
H          0.4126594970   -0.0018322480   -0.0002518100
GHOST-N    2.3640209870    0.0966226830    0.0001468010
GHOST-C    3.0599276260    0.0626518910    1.1448946470
GHOST-H    2.4752550750    0.0862628330    2.0557626750
GHOST-C    4.4489512180   -0.0025305410    1.1948907110
GHOST-H    4.9548575990   -0.0273846960    2.1492198330
GHOST-C    5.1601143630   -0.0356563390   -0.0000204350
GHOST-H    6.2399543140   -0.0874298920   -0.0001008630
GHOST-C    4.4488060650   -0.0025971960   -1.1948217320
GHOST-H    4.9546030120   -0.0274702230   -2.1492203330
GHOST-C    3.0597760510    0.0625977950   -1.1446754720
GHOST-H    2.4750071680    0.0861984500   -2.0554680250
