20

C          0.9640803860    0.8750933090    0.3780136370
H          1.6598296100    1.6999308240    0.4460422740
C          1.4310570860   -0.4131334360    0.1189915180
H          2.4895245280   -0.5872091670   -0.0170126150
C          0.5341276590   -1.4776388970    0.0424175520
H          0.8969612920   -2.4773883850   -0.1520119890
C         -0.8303268210   -1.2536040850    0.2208561110
H         -1.5257600090   -2.0796243530    0.1641165450
C         -1.2975871520    0.0344126110    0.4802426270
H         -2.3543960720    0.2080161170    0.6285609560
C         -0.4004450870    1.0997792110    0.5616013680
H         -0.7604551370    2.0937687990    0.7847569790
GHOST-C   -0.1198551680    0.5343893910    4.3600811750
GHOST-O   -0.5880447620    1.5838360140    3.9808207900
GHOST-O    0.2833574100   -0.4431738750    3.5207959150
GHOST-H    0.1146525890   -0.1172602900    2.6193906610
GHOST-C    0.0900991320    0.1374023050    5.7914869660
GHOST-H   -0.2198670190    0.9467388880    6.4414758530
GHOST-H   -0.4859815960   -0.7592216690    6.0084380800
GHOST-H    1.1385965530   -0.0987297810    5.9565055500
