112

C         20.7370000000   13.0920000000    2.1210000000
C         20.0640000000   11.7210000000    1.9970000000
C         18.5390000000   11.7840000000    2.1460000000
C         17.8560000000   10.4170000000    2.0220000000
C         16.3300000000   10.4860000000    2.1570000000
C         15.6440000000    9.1220000000    2.0260000000
C         14.1170000000    9.1960000000    2.1460000000
C         13.4270000000    7.8350000000    2.0050000000
C         11.9000000000    7.9160000000    2.1160000000
C         11.2040000000    6.5570000000    1.9720000000
C          9.6780000000    6.6440000000    2.0840000000
C          8.9760000000    5.2880000000    1.9450000000
C          7.4510000000    5.3790000000    2.0670000000
C          6.7460000000    4.0240000000    1.9390000000
C          5.2220000000    4.1160000000    2.0780000000
C          4.5160000000    2.7600000000    1.9640000000
C          2.9930000000    2.8500000000    2.1200000000
C          2.2970000000    1.4890000000    2.0140000000
H          1.2110000000    1.5880000000    2.1190000000
H         20.5420000000   13.5360000000    3.1040000000
H         21.8220000000   13.0160000000    1.9940000000
H         20.3570000000   13.7840000000    1.3610000000
H         20.3110000000   11.2780000000    1.0230000000
H         20.4720000000   11.0420000000    2.7580000000
H         18.2890000000   12.2270000000    3.1200000000
H         18.1300000000   12.4630000000    1.3840000000
H         18.1130000000    9.9710000000    1.0510000000
H         18.2570000000    9.7410000000    2.7890000000
H         16.0730000000   10.9290000000    3.1300000000
H         15.9300000000   11.1670000000    1.3930000000
H         15.9090000000    8.6750000000    1.0570000000
H         16.0350000000    8.4430000000    2.7970000000
H         13.8520000000    9.6380000000    3.1170000000
H         13.7280000000    9.8800000000    1.3790000000
H         13.6960000000    7.3900000000    1.0370000000
H         13.8100000000    7.1520000000    2.7770000000
H         11.6310000000    8.3580000000    3.0860000000
H         11.5180000000    8.6010000000    1.3470000000
H         11.4720000000    6.1130000000    1.0040000000
H         11.5850000000    5.8720000000    2.7430000000
H          9.4120000000    7.0890000000    3.0530000000
H          9.2970000000    7.3300000000    1.3140000000
H          9.2370000000    4.8410000000    0.9750000000
H          9.3590000000    4.6020000000    2.7140000000
H          7.1940000000    5.8290000000    3.0370000000
H          7.0660000000    6.0630000000    1.2980000000
H          6.9950000000    3.5750000000    0.9680000000
H          7.1370000000    3.3400000000    2.7060000000
H          4.9760000000    4.5700000000    3.0490000000
H          4.8280000000    4.7960000000    1.3110000000
H          4.7540000000    2.3070000000    0.9910000000
H          4.9170000000    2.0790000000    2.7280000000
H          2.7580000000    3.3070000000    3.0910000000
H          2.5930000000    3.5270000000    1.3540000000
H          2.5000000000    1.0190000000    1.0450000000
H          2.6510000000    0.8070000000    2.7960000000
GHOST-C    4.9690000000    4.7110000000   -2.0530000000
GHOST-C    4.2860000000    3.3440000000   -2.1770000000
GHOST-C    2.7610000000    3.4070000000   -2.0280000000
GHOST-C    2.0880000000    2.0360000000   -2.1520000000
GHOST-C    6.4940000000    4.6420000000   -2.1890000000
GHOST-C    7.1810000000    6.0070000000   -2.0570000000
GHOST-C    8.7070000000    5.9320000000   -2.1770000000
GHOST-C    9.3980000000    7.2930000000   -2.0360000000
GHOST-C   10.9250000000    7.2120000000   -2.1470000000
GHOST-C   11.6200000000    8.5710000000   -2.0030000000
GHOST-C   13.1470000000    8.4840000000   -2.1150000000
GHOST-C   13.8480000000    9.8410000000   -1.9760000000
GHOST-C   15.3730000000    9.7490000000   -2.0980000000
GHOST-C   16.0780000000   11.1050000000   -1.9700000000
GHOST-C   17.6020000000   11.0120000000   -2.1100000000
GHOST-C   18.3080000000   12.3680000000   -1.9950000000
GHOST-C   19.8310000000   12.2780000000   -2.1510000000
GHOST-C   20.5270000000   13.6390000000   -2.0460000000
GHOST-H   21.6130000000   13.5410000000   -2.1510000000
GHOST-H   20.1730000000   14.3210000000   -2.8280000000
GHOST-H   20.0660000000   11.8210000000   -3.1220000000
GHOST-H   20.2310000000   11.6010000000   -1.3850000000
GHOST-H   18.0700000000   12.8220000000   -1.0230000000
GHOST-H   17.9070000000   13.0490000000   -2.7600000000
GHOST-H   17.8480000000   10.5580000000   -3.0800000000
GHOST-H   17.9960000000   10.3320000000   -1.3420000000
GHOST-H   15.8290000000   11.5540000000   -0.9990000000
GHOST-H   15.6870000000   11.7880000000   -2.7370000000
GHOST-H   15.6300000000    9.2990000000   -3.0680000000
GHOST-H   15.7590000000    9.0660000000   -1.3290000000
GHOST-H   13.5880000000   10.2870000000   -1.0060000000
GHOST-H   13.4650000000   10.5260000000   -2.7450000000
GHOST-H   13.4120000000    8.0390000000   -3.0840000000
GHOST-H   13.5270000000    7.7990000000   -1.3450000000
GHOST-H   11.3520000000    9.0160000000   -1.0350000000
GHOST-H   11.2400000000    9.2560000000   -2.7740000000
GHOST-H   11.1940000000    6.7700000000   -3.1170000000
GHOST-H   11.3070000000    6.5270000000   -1.3780000000
GHOST-H    9.1280000000    7.7380000000   -1.0690000000
GHOST-H    9.0150000000    7.9760000000   -2.8080000000
GHOST-H    8.9720000000    5.4900000000   -3.1490000000
GHOST-H    9.0960000000    5.2480000000   -1.4100000000
GHOST-H    6.9160000000    6.4530000000   -1.0890000000
GHOST-H    6.7890000000    6.6850000000   -2.8280000000
GHOST-H    6.7510000000    4.2000000000   -3.1620000000
GHOST-H    6.8940000000    3.9610000000   -1.4250000000
GHOST-H    4.7120000000    5.1570000000   -1.0820000000
GHOST-H    4.5360000000    2.9010000000   -3.1520000000
GHOST-H    4.6940000000    2.6650000000   -1.4160000000
GHOST-H    2.5140000000    3.8500000000   -1.0540000000
GHOST-H    2.3530000000    4.0860000000   -2.7890000000
GHOST-H    1.0030000000    2.1120000000   -2.0260000000
GHOST-H    2.2830000000    1.5920000000   -3.1360000000
GHOST-H    2.4680000000    1.3440000000   -1.3930000000
GHOST-H    4.5670000000    5.3870000000   -2.8210000000
GHOST-H   20.3240000000   14.1090000000   -1.0760000000
