6

Ti            2.3246330643        2.3246330643        1.4853414945
Ti            0.0000000000        0.0000000000       -0.0000000000
O             0.9065353261        3.7427308025        1.4853414945
O             3.7427308025        0.9065353261        1.4853414945
O             1.4180977382        1.4180977382        0.0000000000
O             3.2311683903        3.2311683903        0.0000000000
