19

C          0.6923152340    1.0882920400    0.3248412410
H          1.2819488040    1.9919467800    0.2525157840
C          1.3181872190   -0.1568700790    0.2868960730
H          2.3931433720   -0.2194763580    0.1884068120
C          0.5580184130   -1.3219504490    0.3813998630
H          1.0439192240   -2.2875738020    0.3576154210
C         -0.8275523610   -1.2414218690    0.5116850150
H         -1.4167009500   -2.1452515210    0.5853392720
C         -1.4534113830    0.0036714490    0.5483810720
H         -2.5282325460    0.0657027160    0.6498425370
C         -0.6934609430    1.1684010840    0.4562290700
H         -1.1787353380    2.1344098900    0.4857268450
GHOST-N    0.2750647890   -0.2227172490    3.8589070850
GHOST-H    0.4096831460   -0.1786767470    2.8558357280
GHOST-H    0.4165573600    0.7224294870    4.1913793620
GHOST-C   -1.1010346860   -0.6291006580    4.1363428770
GHOST-H   -1.2589112520   -0.6576476650    5.2128984130
GHOST-H   -1.8723368730    0.0112801310    3.6962238790
GHOST-H   -1.2557266670   -1.6386684600    3.7607211770
