25

C         -2.2753449820   -0.1350749390    0.8313338700
H         -2.4907177630   -0.7279266860   -0.0575663510
H         -2.2263238180   -0.8184464080    1.6788234070
H         -3.1120256640    0.5449434190    0.9874000790
C         -0.9616981240    0.6192778910    0.6693992010
H         -0.7886992020    1.2504318090    1.5447026610
H         -1.0261768750    1.2954452400   -0.1864583820
C          0.2265021740   -0.3147103140    0.4799857940
H          0.3094443880   -0.9751391150    1.3480379350
H          0.0391505600   -0.9659987530   -0.3787898330
C          1.5430016780    0.4211745210    0.2689995050
H          1.7116386280    1.1077717690    1.1024465390
H          1.4660946570    1.0437433120   -0.6252935820
C          2.7275763250   -0.5268609080    0.1374593110
H          2.5887415530   -1.2032139130   -0.7057573400
H          3.6615010040    0.0116930840   -0.0159686280
H          2.8351940720   -1.1374099420    1.0340751210
GHOST-C   -0.4835614890   -0.2878631500    4.1212515370
GHOST-O   -0.9061754290   -1.4030433970    3.9241049580
GHOST-O   -1.2972538470    0.7711023680    4.3538410170
GHOST-H   -2.1980159560    0.4167218300    4.3133052770
GHOST-C    0.9567055740    0.1218029310    4.1384569200
GHOST-H    1.5825286390   -0.7483780140    3.9803017610
GHOST-H    1.1327429880    0.8560765650    3.3553323400
GHOST-H    1.1940168210    0.5911038850    5.0902593110
