17

O         -0.6276517740    0.0874672690    0.0014712850
H          0.3436020340    0.1223033290   -0.0006004450
C         -0.9779312310   -1.2785560060    0.0012384070
H         -2.0633920940   -1.3420433240    0.0050089800
H         -0.6148836860   -1.8063758370   -0.8853839540
H         -0.6086403260   -1.8082368240    0.8841727320
GHOST-N    2.2723366540    0.0164323010   -0.0016268390
GHOST-C    2.9687050430   -0.0080030300   -1.1463464430
GHOST-H    2.3842264460    0.0152205050   -2.0573218810
GHOST-C    4.3583421060   -0.0577458940   -1.1950316930
GHOST-H    4.8656944540   -0.0750379260   -2.1488144170
GHOST-C    5.0687153340   -0.0834585110    0.0005813340
GHOST-H    6.1490513370   -0.1212232640    0.0014306290
GHOST-C    4.3564678820   -0.0584374040    1.1951211870
GHOST-H    4.8622666160   -0.0762617310    2.1496068790
GHOST-C    2.9669142390   -0.0086877170    1.1441671020
GHOST-H    2.3809084530    0.0139867100    2.0542857880
