23

C          0.8450772020    1.0579186900    0.6994549000
H          1.5064060050    1.9032217800    0.8333823510
C          1.3755093140   -0.2174553390    0.5111609340
H          2.4471836680   -0.3614725790    0.5028523240
C          0.5240681010   -1.3070443170    0.3331923250
H          0.9357272600   -2.2960264070    0.1849230480
C         -0.8577157350   -1.1214634080    0.3463840850
H         -1.5183811900   -1.9664580550    0.2083632510
C         -1.3880456960    0.1536343830    0.5376134940
H         -2.4597175250    0.2974158690    0.5500322920
C         -0.5366131490    1.2434222060    0.7127388190
H         -0.9489242650    2.2328062770    0.8573663460
GHOST-N    0.0231173010    0.3520245540    6.7745446450
GHOST-C    0.1778011210    1.2899861590    5.8296677650
GHOST-H    0.3195719480    2.3025121640    6.1875694910
GHOST-C    0.1635918540    1.0226963940    4.4631683270
GHOST-H    0.2938319120    1.8237221920    3.7492829150
GHOST-C   -0.0207464570   -0.2889332910    4.0378778960
GHOST-H   -0.0373129100   -0.5320519580    2.9845299630
GHOST-C   -0.1825953830   -1.2739676240    5.0067369850
GHOST-H   -0.3291384040   -2.3091785920    4.7319654710
GHOST-C   -0.1533929100   -0.9066345230    6.3498264910
GHOST-H   -0.2769890440   -1.6541484920    7.1239274880
